File E:\Teaching\Online Courses\SHM-1401\Models and Files\PART6\Building RHA Identification\SAP 23 Model\2StoryFrame_RHA_MainID(Estimated).$2k was saved on m/d/yy at h:mm:ss
 
TABLE:  "ACTIVE DEGREES OF FREEDOM"
   UX=Yes   UY=Yes   UZ=Yes   RX=Yes   RY=Yes   RZ=Yes
 
TABLE:  "ANALYSIS OPTIONS"
   Solver=Advanced   SolverProc=Auto   Force32Bit=No   StiffCase=MODAL   GeomMod=None   HingeOpt="In Elements"   NumAThreads=0   MaxFileSize=0   NumDThreads=0   NumRThreads=0   UseMMFiles="Program Determined"   AllowDiff=No
 
TABLE:  "AREA LOADS - UNIFORM TO FRAME"
   Area=1   LoadPat=DEAD   CoordSys=GLOBAL   Dir=Gravity   UnifLoad=0.06   DistType="Two way"
   Area=1   LoadPat=LIVE   CoordSys=GLOBAL   Dir=Gravity   UnifLoad=0.005   DistType="Two way"
   Area=2   LoadPat=DEAD   CoordSys=GLOBAL   Dir=Gravity   UnifLoad=0.06   DistType="Two way"
   Area=2   LoadPat=LIVE   CoordSys=GLOBAL   Dir=Gravity   UnifLoad=0.005   DistType="Two way"
   Area=3   LoadPat=DEAD   CoordSys=GLOBAL   Dir=Gravity   UnifLoad=0.06   DistType="Two way"
   Area=3   LoadPat=LIVE   CoordSys=GLOBAL   Dir=Gravity   UnifLoad=0.005   DistType="Two way"
   Area=4   LoadPat=DEAD   CoordSys=GLOBAL   Dir=Gravity   UnifLoad=0.06   DistType="Two way"
   Area=4   LoadPat=LIVE   CoordSys=GLOBAL   Dir=Gravity   UnifLoad=0.005   DistType="Two way"
   Area=5   LoadPat=DEAD   CoordSys=GLOBAL   Dir=Gravity   UnifLoad=0.06   DistType="Two way"
   Area=5   LoadPat=LIVE   CoordSys=GLOBAL   Dir=Gravity   UnifLoad=0.005   DistType="Two way"
   Area=6   LoadPat=DEAD   CoordSys=GLOBAL   Dir=Gravity   UnifLoad=0.06   DistType="Two way"
   Area=6   LoadPat=LIVE   CoordSys=GLOBAL   Dir=Gravity   UnifLoad=0.005   DistType="Two way"
   Area=7   LoadPat=DEAD   CoordSys=GLOBAL   Dir=Gravity   UnifLoad=0.06   DistType="Two way"
   Area=7   LoadPat=PART   CoordSys=GLOBAL   Dir=Gravity   UnifLoad=0.01   DistType="Two way"
   Area=7   LoadPat=LIVE   CoordSys=GLOBAL   Dir=Gravity   UnifLoad=0.02   DistType="Two way"
   Area=8   LoadPat=DEAD   CoordSys=GLOBAL   Dir=Gravity   UnifLoad=0.06   DistType="Two way"
   Area=8   LoadPat=PART   CoordSys=GLOBAL   Dir=Gravity   UnifLoad=0.01   DistType="Two way"
   Area=8   LoadPat=LIVE   CoordSys=GLOBAL   Dir=Gravity   UnifLoad=0.02   DistType="Two way"
   Area=9   LoadPat=DEAD   CoordSys=GLOBAL   Dir=Gravity   UnifLoad=0.06   DistType="Two way"
   Area=9   LoadPat=PART   CoordSys=GLOBAL   Dir=Gravity   UnifLoad=0.01   DistType="Two way"
   Area=9   LoadPat=LIVE   CoordSys=GLOBAL   Dir=Gravity   UnifLoad=0.02   DistType="Two way"
   Area=10   LoadPat=DEAD   CoordSys=GLOBAL   Dir=Gravity   UnifLoad=0.06   DistType="Two way"
   Area=10   LoadPat=PART   CoordSys=GLOBAL   Dir=Gravity   UnifLoad=0.01   DistType="Two way"
   Area=10   LoadPat=LIVE   CoordSys=GLOBAL   Dir=Gravity   UnifLoad=0.02   DistType="Two way"
   Area=11   LoadPat=DEAD   CoordSys=GLOBAL   Dir=Gravity   UnifLoad=0.06   DistType="Two way"
   Area=11   LoadPat=PART   CoordSys=GLOBAL   Dir=Gravity   UnifLoad=0.01   DistType="Two way"
   Area=11   LoadPat=LIVE   CoordSys=GLOBAL   Dir=Gravity   UnifLoad=0.02   DistType="Two way"
   Area=12   LoadPat=DEAD   CoordSys=GLOBAL   Dir=Gravity   UnifLoad=0.06   DistType="Two way"
   Area=12   LoadPat=PART   CoordSys=GLOBAL   Dir=Gravity   UnifLoad=0.01   DistType="Two way"
   Area=12   LoadPat=LIVE   CoordSys=GLOBAL   Dir=Gravity   UnifLoad=0.02   DistType="Two way"
 
TABLE:  "AREA SECTION ASSIGNMENTS"
   Area=1   Section=slab15   MatProp=Default
   Area=2   Section=slab15   MatProp=Default
   Area=3   Section=slab15   MatProp=Default
   Area=4   Section=slab15   MatProp=Default
   Area=5   Section=slab15   MatProp=Default
   Area=6   Section=slab15   MatProp=Default
   Area=7   Section=slab15   MatProp=Default
   Area=8   Section=slab15   MatProp=Default
   Area=9   Section=slab15   MatProp=Default
   Area=10   Section=slab15   MatProp=Default
   Area=11   Section=slab15   MatProp=Default
   Area=12   Section=slab15   MatProp=Default
 
TABLE:  "AREA SECTION PROPERTIES"
   Section=slab15   Material=C25   MatAngle=0   AreaType=Shell   Type=Membrane   DrillDOF=Yes   Thickness=15   BendThick=15   Color=Green   F11Mod=1   F22Mod=1   F12Mod=1   M11Mod=1   M22Mod=1   M12Mod=1   V13Mod=1   V23Mod=1   MMod=1 _
        WMod=1   Notes="Added 1/27/2019 4:15:29 PM"
 
TABLE:  "AREA SECTION PROPERTY DESIGN PARAMETERS"
   Section=slab15   RebarMat=None   RebarOpt=Default
 
TABLE:  "AREA SECTION PROPERTY - TIME DEPENDENT"
   Section=slab15   TypeSize=User   AutoSFSize=1   UserValSize=10
 
TABLE:  "AUTO WAVE 3 - WAVE CHARACTERISTICS - GENERAL"
   WaveChar=Default   WaveType="From Theory"   KinFactor=1   SWaterDepth=4500   WaveHeight=1800   WavePeriod=12   WaveTheory=Linear
 
TABLE:  "CASE - MODAL 1 - GENERAL"
   Case=MODAL   ModeType=Eigen   MaxNumModes=12   MinNumModes=1   EigenShift=0   EigenCutoff=0   EigenTol=1E-09   AutoShift=Yes
 
TABLE:  "CASE - MODAL HISTORY 1 - GENERAL"
   Case=RHA_Earthquacke   HistoryType=Transient   OutSteps=2000   StepSize=0.02   ConstDamp=0.02
 
TABLE:  "CASE - MODAL HISTORY 2 - LOAD ASSIGNMENTS"
   Case=RHA_Earthquacke   LoadType=Accel   LoadName="Accel U1"   Function=EarthquackeAccXDir   TransAccSF=981   TimeFactor=1   ArrivalTime=0   CoordSys=GLOBAL   Angle=0
   Case=RHA_Earthquacke   LoadType=Accel   LoadName="Accel U2"   Function=EarthquackeAccYDir   TransAccSF=981   TimeFactor=1   ArrivalTime=0   CoordSys=GLOBAL   Angle=0
 
TABLE:  "CONNECTIVITY - AREA"
   Area=1   Joint1=6   Joint2=15   Joint3=18   Joint4=9
   Area=2   Joint1=15   Joint2=24   Joint3=27   Joint4=18
   Area=3   Joint1=24   Joint2=33   Joint3=36   Joint4=27
   Area=4   Joint1=21   Joint2=30   Joint3=33   Joint4=24
   Area=5   Joint1=12   Joint2=21   Joint3=24   Joint4=15
   Area=6   Joint1=3   Joint2=12   Joint3=15   Joint4=6
   Area=7   Joint1=23   Joint2=32   Joint3=35   Joint4=26
   Area=8   Joint1=20   Joint2=29   Joint3=32   Joint4=23
   Area=9   Joint1=11   Joint2=20   Joint3=23   Joint4=14
   Area=10   Joint1=14   Joint2=23   Joint3=26   Joint4=17
   Area=11   Joint1=5   Joint2=14   Joint3=17   Joint4=8
   Area=12   Joint1=2   Joint2=11   Joint3=14   Joint4=5
 
TABLE:  "CONNECTIVITY - FRAME"
   Frame=1   JointI=1   JointJ=2   IsCurved=No   GUID=d0d3bc77-eb66-4b12-9c76-8489c5f6cbd2
   Frame=2   JointI=2   JointJ=3   IsCurved=No   GUID=33626264-2723-4abc-a956-2d63bae60e13
   Frame=3   JointI=4   JointJ=5   IsCurved=No   GUID=d75c767f-120e-46e5-898c-a88ceb7efb73
   Frame=4   JointI=5   JointJ=6   IsCurved=No   GUID=5ef21a72-1cac-4186-9f0e-8b75a440edaa
   Frame=5   JointI=7   JointJ=8   IsCurved=No   GUID=7fbd0010-0261-479e-b4c4-fc2414159f22
   Frame=6   JointI=8   JointJ=9   IsCurved=No   GUID=e1ce108e-26b5-48f8-a466-06febcd1951f
   Frame=7   JointI=10   JointJ=11   IsCurved=No   GUID=7a6c207b-e8a8-4e3b-a69f-0eade5b63d8f
   Frame=8   JointI=11   JointJ=12   IsCurved=No   GUID=1b1caeae-fe9f-4b4b-9711-f494ce287a1c
   Frame=9   JointI=13   JointJ=14   IsCurved=No   GUID=b4194752-6d58-4e2f-8b19-2be50c0e47fb
   Frame=10   JointI=14   JointJ=15   IsCurved=No   GUID=f3093c68-0344-461f-9b5c-a25f57ffd141
   Frame=11   JointI=16   JointJ=17   IsCurved=No   GUID=db35d292-ef98-4034-8be7-6c3e3b72b6c1
   Frame=12   JointI=17   JointJ=18   IsCurved=No   GUID=051df3d3-0a1c-402b-8967-61baeb207c24
   Frame=13   JointI=19   JointJ=20   IsCurved=No   GUID=0393747a-11d7-41f9-8b94-9875bff3eb67
   Frame=14   JointI=20   JointJ=21   IsCurved=No   GUID=633f460a-c001-4f66-aa55-6064d14b9ef8
   Frame=15   JointI=22   JointJ=23   IsCurved=No   GUID=dfe64544-25b8-4781-bebd-85106c059b7b
   Frame=16   JointI=23   JointJ=24   IsCurved=No   GUID=f240f918-48a4-4601-96ab-4fc25afffee2
   Frame=17   JointI=25   JointJ=26   IsCurved=No   GUID=954d901f-37f3-4c16-b448-0a0fab32ad12
   Frame=18   JointI=26   JointJ=27   IsCurved=No   GUID=d0cb36ce-1281-43d5-950a-897b88cd8fcd
   Frame=19   JointI=28   JointJ=29   IsCurved=No   GUID=a23eef4f-27f4-49f5-aaa9-f7a801de7921
   Frame=20   JointI=29   JointJ=30   IsCurved=No   GUID=a2a432b6-8755-43a2-802e-b4ac737bd846
   Frame=21   JointI=31   JointJ=32   IsCurved=No   GUID=2cbae233-1aff-43fc-9e04-b8009a26195e
   Frame=22   JointI=32   JointJ=33   IsCurved=No   GUID=b039ee75-b783-4bef-85a2-dee28591a3e8
   Frame=23   JointI=34   JointJ=35   IsCurved=No   GUID=0e6ff1dd-b310-4859-b150-1bb99830ff20
   Frame=24   JointI=35   JointJ=36   IsCurved=No   GUID=9dfb9893-bc85-4035-9f99-e4cc2d291091
   Frame=25   JointI=2   JointJ=11   IsCurved=No   GUID=c3e096a2-4156-4520-9fb7-86da8623cc3c
   Frame=26   JointI=3   JointJ=12   IsCurved=No   GUID=69f6cc8f-d826-4402-bdec-68e8cdd40523
   Frame=27   JointI=11   JointJ=20   IsCurved=No   GUID=a7438b28-1807-4a0e-a652-df40573dc1cb
   Frame=28   JointI=12   JointJ=21   IsCurved=No   GUID=4d42c008-756f-48d6-bc22-bdc6938846e8
   Frame=29   JointI=20   JointJ=29   IsCurved=No   GUID=a4fe85ca-37d8-4e8c-be91-6a9d317bc37a
   Frame=30   JointI=21   JointJ=30   IsCurved=No   GUID=b3ee1384-0c9c-4bb8-a031-22f2426853b0
   Frame=31   JointI=5   JointJ=14   IsCurved=No   GUID=084e6a78-ecd5-4a74-a693-7f8af5ec90bc
   Frame=32   JointI=6   JointJ=15   IsCurved=No   GUID=2076b408-2ae2-4ce3-9212-042d7e481e1b
   Frame=33   JointI=14   JointJ=23   IsCurved=No   GUID=38485d1d-6f4c-4c36-837c-67f1307f21ca
   Frame=34   JointI=15   JointJ=24   IsCurved=No   GUID=a3aefda7-edc8-40d6-b1ee-79502b63dbea
   Frame=35   JointI=23   JointJ=32   IsCurved=No   GUID=395b361c-b294-4273-b1dd-d293b7f31dad
   Frame=36   JointI=24   JointJ=33   IsCurved=No   GUID=f1bcc10f-ee18-409c-a472-4f216be25e0e
   Frame=37   JointI=8   JointJ=17   IsCurved=No   GUID=439cb13f-f37e-4d8f-8212-bb7da45673a1
   Frame=38   JointI=9   JointJ=18   IsCurved=No   GUID=5816eeca-4c2c-41d0-8734-390f435ea883
   Frame=39   JointI=17   JointJ=26   IsCurved=No   GUID=e2454aa7-7d7e-4de3-a2d2-9c60fb86798b
   Frame=40   JointI=18   JointJ=27   IsCurved=No   GUID=27b5bc16-4a7a-49e3-9115-5e8327f88687
   Frame=41   JointI=26   JointJ=35   IsCurved=No   GUID=8ff5a268-79d7-4f37-a40f-863cfb5a9947
   Frame=42   JointI=27   JointJ=36   IsCurved=No   GUID=4afd4da1-bd75-434d-9552-27c70457e445
   Frame=43   JointI=2   JointJ=5   IsCurved=No   GUID=a6cedc73-eb7b-478f-921d-70ba38e7558c
   Frame=44   JointI=3   JointJ=6   IsCurved=No   GUID=36c31dc0-21b3-45e8-9b0f-1f846589f1c1
   Frame=45   JointI=5   JointJ=8   IsCurved=No   GUID=f76e48ed-a772-4d33-adf6-5665e73fd398
   Frame=46   JointI=6   JointJ=9   IsCurved=No   GUID=14ad720d-b214-48f9-aa53-e368ae8659c0
   Frame=47   JointI=11   JointJ=14   IsCurved=No   GUID=2d808469-db16-4f1c-8da9-e917f147cd85
   Frame=48   JointI=12   JointJ=15   IsCurved=No   GUID=d0d8983d-caa1-4519-afe2-777859848db0
   Frame=49   JointI=14   JointJ=17   IsCurved=No   GUID=93ae5f09-8ab1-4ec7-a2d3-f0ef77e13bb6
   Frame=50   JointI=15   JointJ=18   IsCurved=No   GUID=208a02a5-c9f5-4d9e-80d5-6972316d4580
   Frame=51   JointI=20   JointJ=23   IsCurved=No   GUID=6acb42f5-e5e8-445a-8f22-c9b813949147
   Frame=52   JointI=21   JointJ=24   IsCurved=No   GUID=d7809111-b00b-4d00-9981-335ce04b9937
   Frame=53   JointI=23   JointJ=26   IsCurved=No   GUID=8457b749-20e8-4929-bdfa-f24231419b30
   Frame=54   JointI=24   JointJ=27   IsCurved=No   GUID=e9400f8d-d633-4768-8459-fe5211dfc4ac
   Frame=55   JointI=29   JointJ=32   IsCurved=No   GUID=eaddf668-a21e-4bfd-a274-5e8df7a6dbc1
   Frame=56   JointI=30   JointJ=33   IsCurved=No   GUID=2045e198-e0be-4ae4-84ef-745f0246e19a
   Frame=57   JointI=32   JointJ=35   IsCurved=No   GUID=8e0ad6fa-f0db-49b8-9669-254772a57ca2
   Frame=58   JointI=33   JointJ=36   IsCurved=No   GUID=f4530714-ad0f-4c9b-bfb3-10f2f5c84341
 
TABLE:  "CONSTRAINT DEFINITIONS - DIAPHRAGM"
   Name=DIAPH1_300.   CoordSys=GLOBAL   Axis=Z   MultiLevel=No
   Name=DIAPH1_600.   CoordSys=GLOBAL   Axis=Z   MultiLevel=No
 
TABLE:  "CONSTRAINT DEFINITIONS - EQUAL"
   Name=EQUAL1   CoordSys=GLOBAL   UX=No   UY=No   UZ=Yes   RX=No   RY=No   RZ=No
 
TABLE:  "COORDINATE SYSTEMS"
   Name=GLOBAL   Type=Cartesian   X=0   Y=0   Z=0   AboutZ=0   AboutY=0   AboutX=0
 
TABLE:  "DATABASE DOCUMENTATION"
 
TABLE:  "DATABASE FORMAT TYPES"
   UnitsCurr=Yes   OverrideE=No
 
TABLE:  "FRAME AUTO MESH ASSIGNMENTS"
   Frame=1   AutoMesh=Yes   AtJoints=Yes   AtFrames=No   NumSegments=0   MaxLength=0   MaxDegrees=0
   Frame=2   AutoMesh=Yes   AtJoints=Yes   AtFrames=No   NumSegments=0   MaxLength=0   MaxDegrees=0
   Frame=3   AutoMesh=Yes   AtJoints=Yes   AtFrames=No   NumSegments=0   MaxLength=0   MaxDegrees=0
   Frame=4   AutoMesh=Yes   AtJoints=Yes   AtFrames=No   NumSegments=0   MaxLength=0   MaxDegrees=0
   Frame=5   AutoMesh=Yes   AtJoints=Yes   AtFrames=No   NumSegments=0   MaxLength=0   MaxDegrees=0
   Frame=6   AutoMesh=Yes   AtJoints=Yes   AtFrames=No   NumSegments=0   MaxLength=0   MaxDegrees=0
   Frame=7   AutoMesh=Yes   AtJoints=Yes   AtFrames=No   NumSegments=0   MaxLength=0   MaxDegrees=0
   Frame=8   AutoMesh=Yes   AtJoints=Yes   AtFrames=No   NumSegments=0   MaxLength=0   MaxDegrees=0
   Frame=9   AutoMesh=Yes   AtJoints=Yes   AtFrames=No   NumSegments=0   MaxLength=0   MaxDegrees=0
   Frame=10   AutoMesh=Yes   AtJoints=Yes   AtFrames=No   NumSegments=0   MaxLength=0   MaxDegrees=0
   Frame=11   AutoMesh=Yes   AtJoints=Yes   AtFrames=No   NumSegments=0   MaxLength=0   MaxDegrees=0
   Frame=12   AutoMesh=Yes   AtJoints=Yes   AtFrames=No   NumSegments=0   MaxLength=0   MaxDegrees=0
   Frame=13   AutoMesh=Yes   AtJoints=Yes   AtFrames=No   NumSegments=0   MaxLength=0   MaxDegrees=0
   Frame=14   AutoMesh=Yes   AtJoints=Yes   AtFrames=No   NumSegments=0   MaxLength=0   MaxDegrees=0
   Frame=15   AutoMesh=Yes   AtJoints=Yes   AtFrames=No   NumSegments=0   MaxLength=0   MaxDegrees=0
   Frame=16   AutoMesh=Yes   AtJoints=Yes   AtFrames=No   NumSegments=0   MaxLength=0   MaxDegrees=0
   Frame=17   AutoMesh=Yes   AtJoints=Yes   AtFrames=No   NumSegments=0   MaxLength=0   MaxDegrees=0
   Frame=18   AutoMesh=Yes   AtJoints=Yes   AtFrames=No   NumSegments=0   MaxLength=0   MaxDegrees=0
   Frame=19   AutoMesh=Yes   AtJoints=Yes   AtFrames=No   NumSegments=0   MaxLength=0   MaxDegrees=0
   Frame=20   AutoMesh=Yes   AtJoints=Yes   AtFrames=No   NumSegments=0   MaxLength=0   MaxDegrees=0
# ... 38 like lines cut
 
TABLE:  "FRAME DESIGN PROCEDURES"
   Frame=1   DesignProc="From Material"
   Frame=2   DesignProc="From Material"
   Frame=3   DesignProc="From Material"
   Frame=4   DesignProc="From Material"
   Frame=5   DesignProc="From Material"
   Frame=6   DesignProc="From Material"
   Frame=7   DesignProc="From Material"
   Frame=8   DesignProc="From Material"
   Frame=9   DesignProc="From Material"
   Frame=10   DesignProc="From Material"
   Frame=11   DesignProc="From Material"
   Frame=12   DesignProc="From Material"
   Frame=13   DesignProc="From Material"
   Frame=14   DesignProc="From Material"
   Frame=15   DesignProc="From Material"
   Frame=16   DesignProc="From Material"
   Frame=17   DesignProc="From Material"
   Frame=18   DesignProc="From Material"
   Frame=19   DesignProc="From Material"
   Frame=20   DesignProc="From Material"
# ... 38 like lines cut
 
TABLE:  "FRAME INSERTION POINT ASSIGNMENTS"
   Frame=1   CardinalPt="10 (centroid)"   Mirror2=No   Mirror3=No   Transform=Yes
   Frame=2   CardinalPt="10 (centroid)"   Mirror2=No   Mirror3=No   Transform=Yes
   Frame=3   CardinalPt="10 (centroid)"   Mirror2=No   Mirror3=No   Transform=Yes
   Frame=4   CardinalPt="10 (centroid)"   Mirror2=No   Mirror3=No   Transform=Yes
   Frame=5   CardinalPt="10 (centroid)"   Mirror2=No   Mirror3=No   Transform=Yes
   Frame=6   CardinalPt="10 (centroid)"   Mirror2=No   Mirror3=No   Transform=Yes
   Frame=7   CardinalPt="10 (centroid)"   Mirror2=No   Mirror3=No   Transform=Yes
   Frame=8   CardinalPt="10 (centroid)"   Mirror2=No   Mirror3=No   Transform=Yes
   Frame=9   CardinalPt="10 (centroid)"   Mirror2=No   Mirror3=No   Transform=Yes
   Frame=10   CardinalPt="10 (centroid)"   Mirror2=No   Mirror3=No   Transform=Yes
   Frame=11   CardinalPt="10 (centroid)"   Mirror2=No   Mirror3=No   Transform=Yes
   Frame=12   CardinalPt="10 (centroid)"   Mirror2=No   Mirror3=No   Transform=Yes
   Frame=13   CardinalPt="10 (centroid)"   Mirror2=No   Mirror3=No   Transform=Yes
   Frame=14   CardinalPt="10 (centroid)"   Mirror2=No   Mirror3=No   Transform=Yes
   Frame=15   CardinalPt="10 (centroid)"   Mirror2=No   Mirror3=No   Transform=Yes
   Frame=16   CardinalPt="10 (centroid)"   Mirror2=No   Mirror3=No   Transform=Yes
   Frame=17   CardinalPt="10 (centroid)"   Mirror2=No   Mirror3=No   Transform=Yes
   Frame=18   CardinalPt="10 (centroid)"   Mirror2=No   Mirror3=No   Transform=Yes
   Frame=19   CardinalPt="10 (centroid)"   Mirror2=No   Mirror3=No   Transform=Yes
   Frame=20   CardinalPt="10 (centroid)"   Mirror2=No   Mirror3=No   Transform=Yes
# ... 4 like lines cut
   Frame=25   CardinalPt="8 (top center)"   Mirror2=No   Mirror3=No   Transform=No
   Frame=26   CardinalPt="8 (top center)"   Mirror2=No   Mirror3=No   Transform=No
   Frame=27   CardinalPt="8 (top center)"   Mirror2=No   Mirror3=No   Transform=No
   Frame=28   CardinalPt="8 (top center)"   Mirror2=No   Mirror3=No   Transform=No
   Frame=29   CardinalPt="8 (top center)"   Mirror2=No   Mirror3=No   Transform=No
   Frame=30   CardinalPt="8 (top center)"   Mirror2=No   Mirror3=No   Transform=No
   Frame=31   CardinalPt="8 (top center)"   Mirror2=No   Mirror3=No   Transform=No
   Frame=32   CardinalPt="8 (top center)"   Mirror2=No   Mirror3=No   Transform=No
   Frame=33   CardinalPt="8 (top center)"   Mirror2=No   Mirror3=No   Transform=No
   Frame=34   CardinalPt="8 (top center)"   Mirror2=No   Mirror3=No   Transform=No
   Frame=35   CardinalPt="8 (top center)"   Mirror2=No   Mirror3=No   Transform=No
   Frame=36   CardinalPt="8 (top center)"   Mirror2=No   Mirror3=No   Transform=No
   Frame=37   CardinalPt="8 (top center)"   Mirror2=No   Mirror3=No   Transform=No
   Frame=38   CardinalPt="8 (top center)"   Mirror2=No   Mirror3=No   Transform=No
   Frame=39   CardinalPt="8 (top center)"   Mirror2=No   Mirror3=No   Transform=No
   Frame=40   CardinalPt="8 (top center)"   Mirror2=No   Mirror3=No   Transform=No
   Frame=41   CardinalPt="8 (top center)"   Mirror2=No   Mirror3=No   Transform=No
   Frame=42   CardinalPt="8 (top center)"   Mirror2=No   Mirror3=No   Transform=No
   Frame=43   CardinalPt="8 (top center)"   Mirror2=No   Mirror3=No   Transform=No
   Frame=44   CardinalPt="8 (top center)"   Mirror2=No   Mirror3=No   Transform=No
# ... 14 like lines cut
 
TABLE:  "FRAME LOADS - DISTRIBUTED"
   Frame=25   LoadPat=DEAD   CoordSys=GLOBAL   Type=Force   Dir=Gravity   DistType=RelDist   RelDistA=0   RelDistB=1   AbsDistA=0   AbsDistB=500   FOverLA=7.5   FOverLB=7.5   GUID=4d4bf65f-cd18-44f1-8da6-7117ad0922c7
   Frame=26   LoadPat=DEAD   CoordSys=GLOBAL   Type=Force   Dir=Gravity   DistType=RelDist   RelDistA=0   RelDistB=1   AbsDistA=0   AbsDistB=500   FOverLA=2.5   FOverLB=2.5   GUID=77e686a4-fbbf-4d16-90e9-f220b3ac4bf2
   Frame=26   LoadPat=MASS   CoordSys=GLOBAL   Type=Force   Dir=Gravity   DistType=RelDist   RelDistA=0   RelDistB=1   AbsDistA=0   AbsDistB=500   FOverLA=3.75   FOverLB=3.75   GUID=921d6e00-eeee-402b-92b7-a9ec5004fa18
   Frame=27   LoadPat=DEAD   CoordSys=GLOBAL   Type=Force   Dir=Gravity   DistType=RelDist   RelDistA=0   RelDistB=1   AbsDistA=0   AbsDistB=500   FOverLA=7.5   FOverLB=7.5   GUID=e3f9b691-1062-4c7e-871f-eee14d85bb4a
   Frame=28   LoadPat=DEAD   CoordSys=GLOBAL   Type=Force   Dir=Gravity   DistType=RelDist   RelDistA=0   RelDistB=1   AbsDistA=0   AbsDistB=500   FOverLA=2.5   FOverLB=2.5   GUID=b02d4b45-247b-4642-860b-ad982b4fd3e2
   Frame=28   LoadPat=MASS   CoordSys=GLOBAL   Type=Force   Dir=Gravity   DistType=RelDist   RelDistA=0   RelDistB=1   AbsDistA=0   AbsDistB=500   FOverLA=3.75   FOverLB=3.75   GUID=0b6d263a-a878-4aba-b876-4660b91fdd34
   Frame=29   LoadPat=DEAD   CoordSys=GLOBAL   Type=Force   Dir=Gravity   DistType=RelDist   RelDistA=0   RelDistB=1   AbsDistA=0   AbsDistB=500   FOverLA=7.5   FOverLB=7.5   GUID=2314bd92-550c-49dc-a4df-a5cfec7ef984
   Frame=30   LoadPat=DEAD   CoordSys=GLOBAL   Type=Force   Dir=Gravity   DistType=RelDist   RelDistA=0   RelDistB=1   AbsDistA=0   AbsDistB=500   FOverLA=2.5   FOverLB=2.5   GUID=e5944fec-1c02-4a69-8249-6366264ac429
   Frame=30   LoadPat=MASS   CoordSys=GLOBAL   Type=Force   Dir=Gravity   DistType=RelDist   RelDistA=0   RelDistB=1   AbsDistA=0   AbsDistB=500   FOverLA=3.75   FOverLB=3.75   GUID=f396b224-ffc0-41ad-b684-829ce94dc6ee
   Frame=37   LoadPat=DEAD   CoordSys=GLOBAL   Type=Force   Dir=Gravity   DistType=RelDist   RelDistA=0   RelDistB=1   AbsDistA=0   AbsDistB=500   FOverLA=7.5   FOverLB=7.5   GUID=a26a3f8a-d7f1-4769-8824-05d1b52042ca
   Frame=38   LoadPat=DEAD   CoordSys=GLOBAL   Type=Force   Dir=Gravity   DistType=RelDist   RelDistA=0   RelDistB=1   AbsDistA=0   AbsDistB=500   FOverLA=2.5   FOverLB=2.5   GUID=ffd84409-96cc-4e11-9109-95ca37fc444d
   Frame=38   LoadPat=MASS   CoordSys=GLOBAL   Type=Force   Dir=Gravity   DistType=RelDist   RelDistA=0   RelDistB=1   AbsDistA=0   AbsDistB=500   FOverLA=3.75   FOverLB=3.75   GUID=88786e9a-100a-49cd-9026-65c8c283e009
   Frame=39   LoadPat=DEAD   CoordSys=GLOBAL   Type=Force   Dir=Gravity   DistType=RelDist   RelDistA=0   RelDistB=1   AbsDistA=0   AbsDistB=500   FOverLA=7.5   FOverLB=7.5   GUID=5a7ef3a5-a8eb-4dbd-943f-dbf1367ccb44
   Frame=40   LoadPat=DEAD   CoordSys=GLOBAL   Type=Force   Dir=Gravity   DistType=RelDist   RelDistA=0   RelDistB=1   AbsDistA=0   AbsDistB=500   FOverLA=2.5   FOverLB=2.5   GUID=1ec094ad-6466-47b8-a80c-99c367a2ad26
   Frame=40   LoadPat=MASS   CoordSys=GLOBAL   Type=Force   Dir=Gravity   DistType=RelDist   RelDistA=0   RelDistB=1   AbsDistA=0   AbsDistB=500   FOverLA=3.75   FOverLB=3.75   GUID=e47c4e18-c086-4132-bbb7-e91ff8487129
   Frame=41   LoadPat=DEAD   CoordSys=GLOBAL   Type=Force   Dir=Gravity   DistType=RelDist   RelDistA=0   RelDistB=1   AbsDistA=0   AbsDistB=500   FOverLA=7.5   FOverLB=7.5   GUID=aad2b946-fcf0-4493-9918-818109449e65
   Frame=42   LoadPat=DEAD   CoordSys=GLOBAL   Type=Force   Dir=Gravity   DistType=RelDist   RelDistA=0   RelDistB=1   AbsDistA=0   AbsDistB=500   FOverLA=2.5   FOverLB=2.5   GUID=55b32760-2549-4bca-ab19-04aa6628ab2a
   Frame=42   LoadPat=MASS   CoordSys=GLOBAL   Type=Force   Dir=Gravity   DistType=RelDist   RelDistA=0   RelDistB=1   AbsDistA=0   AbsDistB=500   FOverLA=3.75   FOverLB=3.75   GUID=fad9e671-ba00-4584-b8ac-9630532e408e
   Frame=43   LoadPat=DEAD   CoordSys=GLOBAL   Type=Force   Dir=Gravity   DistType=RelDist   RelDistA=0   RelDistB=1   AbsDistA=0   AbsDistB=500   FOverLA=7.5   FOverLB=7.5   GUID=b3cdb314-0433-4695-866f-85a8084290d7
   Frame=44   LoadPat=DEAD   CoordSys=GLOBAL   Type=Force   Dir=Gravity   DistType=RelDist   RelDistA=0   RelDistB=1   AbsDistA=0   AbsDistB=500   FOverLA=2.5   FOverLB=2.5   GUID=b902faae-939e-4abf-a9b8-553c3e8357f7
   Frame=44   LoadPat=MASS   CoordSys=GLOBAL   Type=Force   Dir=Gravity   DistType=RelDist   RelDistA=0   RelDistB=1   AbsDistA=0   AbsDistB=500   FOverLA=3.75   FOverLB=3.75   GUID=ae353c09-e8ea-42fb-95d3-1e7030770c30
   Frame=45   LoadPat=DEAD   CoordSys=GLOBAL   Type=Force   Dir=Gravity   DistType=RelDist   RelDistA=0   RelDistB=1   AbsDistA=0   AbsDistB=500   FOverLA=7.5   FOverLB=7.5   GUID=7b1eab39-1cda-458c-a01d-33510560791e
   Frame=46   LoadPat=DEAD   CoordSys=GLOBAL   Type=Force   Dir=Gravity   DistType=RelDist   RelDistA=0   RelDistB=1   AbsDistA=0   AbsDistB=500   FOverLA=2.5   FOverLB=2.5   GUID=40ee9cfa-8428-4347-85a5-337231cfef27
   Frame=46   LoadPat=MASS   CoordSys=GLOBAL   Type=Force   Dir=Gravity   DistType=RelDist   RelDistA=0   RelDistB=1   AbsDistA=0   AbsDistB=500   FOverLA=3.75   FOverLB=3.75   GUID=8df815f7-dbf4-44ab-b9bb-754003e8d6e5
   Frame=55   LoadPat=DEAD   CoordSys=GLOBAL   Type=Force   Dir=Gravity   DistType=RelDist   RelDistA=0   RelDistB=1   AbsDistA=0   AbsDistB=500   FOverLA=7.5   FOverLB=7.5   GUID=2c89b08d-a5c8-4417-8bbd-85eb9e823835
   Frame=56   LoadPat=DEAD   CoordSys=GLOBAL   Type=Force   Dir=Gravity   DistType=RelDist   RelDistA=0   RelDistB=1   AbsDistA=0   AbsDistB=500   FOverLA=2.5   FOverLB=2.5   GUID=58339961-fabb-49d3-9418-ce729f6ffa83
   Frame=56   LoadPat=MASS   CoordSys=GLOBAL   Type=Force   Dir=Gravity   DistType=RelDist   RelDistA=0   RelDistB=1   AbsDistA=0   AbsDistB=500   FOverLA=3.75   FOverLB=3.75   GUID=4c9c0947-d1aa-4b99-b29a-d6761837069b
   Frame=57   LoadPat=DEAD   CoordSys=GLOBAL   Type=Force   Dir=Gravity   DistType=RelDist   RelDistA=0   RelDistB=1   AbsDistA=0   AbsDistB=500   FOverLA=7.5   FOverLB=7.5   GUID=48941c52-1b0a-4a01-8c57-ce676935b9e8
   Frame=58   LoadPat=DEAD   CoordSys=GLOBAL   Type=Force   Dir=Gravity   DistType=RelDist   RelDistA=0   RelDistB=1   AbsDistA=0   AbsDistB=500   FOverLA=2.5   FOverLB=2.5   GUID=444ae378-4166-4e9c-9cdf-fc7fde2882d3
   Frame=58   LoadPat=MASS   CoordSys=GLOBAL   Type=Force   Dir=Gravity   DistType=RelDist   RelDistA=0   RelDistB=1   AbsDistA=0   AbsDistB=500   FOverLA=3.75   FOverLB=3.75   GUID=71436469-29ee-4b94-9e38-2da494f1fc81
 
TABLE:  "FRAME LOAD TRANSFER OPTIONS"
   Frame=1   Transfer=Yes
   Frame=2   Transfer=Yes
   Frame=3   Transfer=Yes
   Frame=4   Transfer=Yes
   Frame=5   Transfer=Yes
   Frame=6   Transfer=Yes
   Frame=7   Transfer=Yes
   Frame=8   Transfer=Yes
   Frame=9   Transfer=Yes
   Frame=10   Transfer=Yes
   Frame=11   Transfer=Yes
   Frame=12   Transfer=Yes
   Frame=13   Transfer=Yes
   Frame=14   Transfer=Yes
   Frame=15   Transfer=Yes
   Frame=16   Transfer=Yes
   Frame=17   Transfer=Yes
   Frame=18   Transfer=Yes
   Frame=19   Transfer=Yes
   Frame=20   Transfer=Yes
# ... 38 like lines cut
 
TABLE:  "FRAME OFFSET ALONG LENGTH ASSIGNMENTS"
   Frame=1   Type=Automatic   RigidFactor=0.5
   Frame=2   Type=Automatic   RigidFactor=0.5
   Frame=3   Type=Automatic   RigidFactor=0.5
   Frame=4   Type=Automatic   RigidFactor=0.5
   Frame=5   Type=Automatic   RigidFactor=0.5
   Frame=6   Type=Automatic   RigidFactor=0.5
   Frame=7   Type=Automatic   RigidFactor=0.5
   Frame=8   Type=Automatic   RigidFactor=0.5
   Frame=9   Type=Automatic   RigidFactor=0.5
   Frame=10   Type=Automatic   RigidFactor=0.5
   Frame=11   Type=Automatic   RigidFactor=0.5
   Frame=12   Type=Automatic   RigidFactor=0.5
   Frame=13   Type=Automatic   RigidFactor=0.5
   Frame=14   Type=Automatic   RigidFactor=0.5
   Frame=15   Type=Automatic   RigidFactor=0.5
   Frame=16   Type=Automatic   RigidFactor=0.5
   Frame=17   Type=Automatic   RigidFactor=0.5
   Frame=18   Type=Automatic   RigidFactor=0.5
   Frame=19   Type=Automatic   RigidFactor=0.5
   Frame=20   Type=Automatic   RigidFactor=0.5
# ... 38 like lines cut
 
TABLE:  "FRAME OUTPUT STATION ASSIGNMENTS"
   Frame=1   StationType=MinNumSta   MinNumSta=3   AddAtElmInt=Yes   AddAtPtLoad=Yes
   Frame=2   StationType=MinNumSta   MinNumSta=3   AddAtElmInt=Yes   AddAtPtLoad=Yes
   Frame=3   StationType=MinNumSta   MinNumSta=3   AddAtElmInt=Yes   AddAtPtLoad=Yes
   Frame=4   StationType=MinNumSta   MinNumSta=3   AddAtElmInt=Yes   AddAtPtLoad=Yes
   Frame=5   StationType=MinNumSta   MinNumSta=3   AddAtElmInt=Yes   AddAtPtLoad=Yes
   Frame=6   StationType=MinNumSta   MinNumSta=3   AddAtElmInt=Yes   AddAtPtLoad=Yes
   Frame=7   StationType=MinNumSta   MinNumSta=3   AddAtElmInt=Yes   AddAtPtLoad=Yes
   Frame=8   StationType=MinNumSta   MinNumSta=3   AddAtElmInt=Yes   AddAtPtLoad=Yes
   Frame=9   StationType=MinNumSta   MinNumSta=3   AddAtElmInt=Yes   AddAtPtLoad=Yes
   Frame=10   StationType=MinNumSta   MinNumSta=3   AddAtElmInt=Yes   AddAtPtLoad=Yes
   Frame=11   StationType=MinNumSta   MinNumSta=3   AddAtElmInt=Yes   AddAtPtLoad=Yes
   Frame=12   StationType=MinNumSta   MinNumSta=3   AddAtElmInt=Yes   AddAtPtLoad=Yes
   Frame=13   StationType=MinNumSta   MinNumSta=3   AddAtElmInt=Yes   AddAtPtLoad=Yes
   Frame=14   StationType=MinNumSta   MinNumSta=3   AddAtElmInt=Yes   AddAtPtLoad=Yes
   Frame=15   StationType=MinNumSta   MinNumSta=3   AddAtElmInt=Yes   AddAtPtLoad=Yes
   Frame=16   StationType=MinNumSta   MinNumSta=3   AddAtElmInt=Yes   AddAtPtLoad=Yes
   Frame=17   StationType=MinNumSta   MinNumSta=3   AddAtElmInt=Yes   AddAtPtLoad=Yes
   Frame=18   StationType=MinNumSta   MinNumSta=3   AddAtElmInt=Yes   AddAtPtLoad=Yes
   Frame=19   StationType=MinNumSta   MinNumSta=3   AddAtElmInt=Yes   AddAtPtLoad=Yes
   Frame=20   StationType=MinNumSta   MinNumSta=3   AddAtElmInt=Yes   AddAtPtLoad=Yes
# ... 4 like lines cut
   Frame=25   StationType=MaxStaSpcg   MaxStaSpcg=50   AddAtElmInt=Yes   AddAtPtLoad=Yes
   Frame=26   StationType=MaxStaSpcg   MaxStaSpcg=50   AddAtElmInt=Yes   AddAtPtLoad=Yes
   Frame=27   StationType=MaxStaSpcg   MaxStaSpcg=50   AddAtElmInt=Yes   AddAtPtLoad=Yes
   Frame=28   StationType=MaxStaSpcg   MaxStaSpcg=50   AddAtElmInt=Yes   AddAtPtLoad=Yes
   Frame=29   StationType=MaxStaSpcg   MaxStaSpcg=50   AddAtElmInt=Yes   AddAtPtLoad=Yes
   Frame=30   StationType=MaxStaSpcg   MaxStaSpcg=50   AddAtElmInt=Yes   AddAtPtLoad=Yes
   Frame=31   StationType=MaxStaSpcg   MaxStaSpcg=50   AddAtElmInt=Yes   AddAtPtLoad=Yes
   Frame=32   StationType=MaxStaSpcg   MaxStaSpcg=50   AddAtElmInt=Yes   AddAtPtLoad=Yes
   Frame=33   StationType=MaxStaSpcg   MaxStaSpcg=50   AddAtElmInt=Yes   AddAtPtLoad=Yes
   Frame=34   StationType=MaxStaSpcg   MaxStaSpcg=50   AddAtElmInt=Yes   AddAtPtLoad=Yes
   Frame=35   StationType=MaxStaSpcg   MaxStaSpcg=50   AddAtElmInt=Yes   AddAtPtLoad=Yes
   Frame=36   StationType=MaxStaSpcg   MaxStaSpcg=50   AddAtElmInt=Yes   AddAtPtLoad=Yes
   Frame=37   StationType=MaxStaSpcg   MaxStaSpcg=50   AddAtElmInt=Yes   AddAtPtLoad=Yes
   Frame=38   StationType=MaxStaSpcg   MaxStaSpcg=50   AddAtElmInt=Yes   AddAtPtLoad=Yes
   Frame=39   StationType=MaxStaSpcg   MaxStaSpcg=50   AddAtElmInt=Yes   AddAtPtLoad=Yes
   Frame=40   StationType=MaxStaSpcg   MaxStaSpcg=50   AddAtElmInt=Yes   AddAtPtLoad=Yes
   Frame=41   StationType=MaxStaSpcg   MaxStaSpcg=50   AddAtElmInt=Yes   AddAtPtLoad=Yes
   Frame=42   StationType=MaxStaSpcg   MaxStaSpcg=50   AddAtElmInt=Yes   AddAtPtLoad=Yes
   Frame=43   StationType=MaxStaSpcg   MaxStaSpcg=50   AddAtElmInt=Yes   AddAtPtLoad=Yes
   Frame=44   StationType=MaxStaSpcg   MaxStaSpcg=50   AddAtElmInt=Yes   AddAtPtLoad=Yes
# ... 14 like lines cut
 
TABLE:  "FRAME SECTION ASSIGNMENTS"
   Frame=1   AutoSelect=AutoCol1   AnalSect=HE320B   MatProp=Default
   Frame=2   AutoSelect=AutoCol2   AnalSect=HE240B   MatProp=Default
   Frame=3   AutoSelect=AutoCol1   AnalSect=HE320B   MatProp=Default
   Frame=4   AutoSelect=AutoCol2   AnalSect=HE240B   MatProp=Default
   Frame=5   AutoSelect=AutoCol1   AnalSect=HE320B   MatProp=Default
   Frame=6   AutoSelect=AutoCol2   AnalSect=HE240B   MatProp=Default
   Frame=7   AutoSelect=AutoCol1   AnalSect=HE320B   MatProp=Default
   Frame=8   AutoSelect=AutoCol2   AnalSect=HE240B   MatProp=Default
   Frame=9   AutoSelect=AutoCol1   AnalSect=HE320B   MatProp=Default
   Frame=10   AutoSelect=AutoCol2   AnalSect=HE240B   MatProp=Default
   Frame=11   AutoSelect=AutoCol1   AnalSect=HE320B   MatProp=Default
   Frame=12   AutoSelect=AutoCol2   AnalSect=HE240B   MatProp=Default
   Frame=13   AutoSelect=AutoCol1   AnalSect=HE320B   MatProp=Default
   Frame=14   AutoSelect=AutoCol2   AnalSect=HE240B   MatProp=Default
   Frame=15   AutoSelect=AutoCol1   AnalSect=HE320B   MatProp=Default
   Frame=16   AutoSelect=AutoCol2   AnalSect=HE240B   MatProp=Default
   Frame=17   AutoSelect=AutoCol1   AnalSect=HE320B   MatProp=Default
   Frame=18   AutoSelect=AutoCol2   AnalSect=HE240B   MatProp=Default
   Frame=19   AutoSelect=AutoCol1   AnalSect=HE320B   MatProp=Default
   Frame=20   AutoSelect=AutoCol2   AnalSect=HE240B   MatProp=Default
# ... 4 like lines cut
   Frame=25   AutoSelect=AutoBeam1   AnalSect=IPE180   MatProp=Default
   Frame=26   AutoSelect=AutoBeam2   AnalSect=IPE180   MatProp=Default
   Frame=27   AutoSelect=AutoBeam1   AnalSect=IPE180   MatProp=Default
   Frame=28   AutoSelect=AutoBeam2   AnalSect=IPE180   MatProp=Default
   Frame=29   AutoSelect=AutoBeam1   AnalSect=IPE180   MatProp=Default
   Frame=30   AutoSelect=AutoBeam2   AnalSect=IPE180   MatProp=Default
   Frame=31   AutoSelect=AutoBeam1   AnalSect=IPE180   MatProp=Default
   Frame=32   AutoSelect=AutoBeam2   AnalSect=IPE180   MatProp=Default
   Frame=33   AutoSelect=AutoBeam1   AnalSect=IPE180   MatProp=Default
   Frame=34   AutoSelect=AutoBeam2   AnalSect=IPE180   MatProp=Default
   Frame=35   AutoSelect=AutoBeam1   AnalSect=IPE180   MatProp=Default
   Frame=36   AutoSelect=AutoBeam2   AnalSect=IPE180   MatProp=Default
   Frame=37   AutoSelect=AutoBeam1   AnalSect=IPE180   MatProp=Default
   Frame=38   AutoSelect=AutoBeam2   AnalSect=IPE180   MatProp=Default
   Frame=39   AutoSelect=AutoBeam1   AnalSect=IPE180   MatProp=Default
   Frame=40   AutoSelect=AutoBeam2   AnalSect=IPE180   MatProp=Default
   Frame=41   AutoSelect=AutoBeam1   AnalSect=IPE180   MatProp=Default
   Frame=42   AutoSelect=AutoBeam2   AnalSect=IPE180   MatProp=Default
   Frame=43   AutoSelect=AutoBeam1   AnalSect=IPE180   MatProp=Default
   Frame=44   AutoSelect=AutoBeam2   AnalSect=IPE180   MatProp=Default
# ... 14 like lines cut
 
TABLE:  "FRAME SECTION PROPERTIES 01 - GENERAL"
   SectionName=AutoBeam1   Shape="Auto Select"   AutoType=Steel   Color=Magenta   Notes="Imported 1/27/2019 4:11:46 PM from EURO.PRO"
   SectionName=AutoBeam2   Shape="Auto Select"   AutoType=Steel   Color=Magenta   Notes="Imported 1/27/2019 4:11:46 PM from EURO.PRO"
   SectionName=AutoCol1   Shape="Auto Select"   AutoType=Steel   Color=Blue   Notes="Imported 1/27/2019 4:12:26 PM from EURO.PRO"
   SectionName=AutoCol2   Shape="Auto Select"   AutoType=Steel   Color=Red   Notes="Added 6/12/2022 10:17:23"
   SectionName=HE140B   Material=ST37   Shape="I/Wide Flange"   t3=14   t2=14   tf=1.2   tw=0.7   t2b=14   tfb=1.2   FilletRadius=1.2   Area=43   TorsConst=20.2   I33=1509   I22=550   I23=0   AS2=9.8   AS3=28   S33=215.571428571429 _
        S22=78.5714285714286   Z33=245   Z22=120   R33=5.92393646622024   R22=3.57640848819295   Color=Magenta   FromFile=Yes   AMod=1   A2Mod=1   A3Mod=1   JMod=1   I2Mod=1   I3Mod=1   MMod=1   WMod=1   SectInFile=HE140B _
        FileName="c:\program files (x86)\computers and structures\sap2000 14\euro.pro"   Notes="Imported 1/27/2019 4:12:26 PM from EURO.PRO"
   SectionName=HE160B   Material=ST37   Shape="I/Wide Flange"   t3=16   t2=16   tf=1.3   tw=0.8   t2b=16   tfb=1.3   FilletRadius=1.5   Area=54.3   TorsConst=31.3   I33=2492   I22=889   I23=0   AS2=12.8   AS3=34.6666674804688   S33=311.5 _
        S22=111.125   Z33=354   Z22=170   R33=6.77445097433609   R22=4.04623372613132   Color=Yellow   FromFile=Yes   AMod=1   A2Mod=1   A3Mod=1   JMod=1   I2Mod=1   I3Mod=1   MMod=1   WMod=1   SectInFile=HE160B _
        FileName="c:\program files (x86)\computers and structures\sap2000 14\euro.pro"   Notes="Imported 1/27/2019 4:12:26 PM from EURO.PRO"
   SectionName=HE180B   Material=ST37   Shape="I/Wide Flange"   t3=18   t2=18   tf=1.4   tw=0.85   t2b=18   tfb=1.4   FilletRadius=1.5   Area=65.3   TorsConst=42.2   I33=3831   I22=1363   I23=0   AS2=15.3   AS3=42   S33=425.666666666667 _
        S22=151.444444444444   Z33=481   Z22=231   R33=7.65948350711144   R22=4.56868628096128   Color=White   FromFile=Yes   AMod=1   A2Mod=1   A3Mod=1   JMod=1   I2Mod=1   I3Mod=1   MMod=1   WMod=1   SectInFile=HE180B _
        FileName="c:\program files (x86)\computers and structures\sap2000 14\euro.pro"   Notes="Imported 1/27/2019 4:12:26 PM from EURO.PRO"
   SectionName=HE200B   Material=ST37   Shape="I/Wide Flange"   t3=20   t2=20   tf=1.5   tw=0.9   t2b=20   tfb=1.5   FilletRadius=1.8   Area=78.1   TorsConst=59.7   I33=5696   I22=2003   I23=0   AS2=18   AS3=50   S33=569.6   S22=200.3 _
        Z33=643   Z22=306   R33=8.54003151541322   R22=5.0642479120016   Color=Gray8Dark   FromFile=Yes   AMod=1   A2Mod=1   A3Mod=1   JMod=1   I2Mod=1   I3Mod=1   MMod=1   WMod=1   SectInFile=HE200B _
        FileName="c:\program files (x86)\computers and structures\sap2000 14\euro.pro"   Notes="Imported 1/27/2019 4:12:26 PM from EURO.PRO"
   SectionName=HE220B   Material=ST37   Shape="I/Wide Flange"   t3=22   t2=22   tf=1.6   tw=0.95   t2b=22   tfb=1.6   FilletRadius=1.8   Area=91   TorsConst=77   I33=8091   I22=2843   I23=0   AS2=20.9   AS3=58.6666650390625 _
        S33=735.545454545455   S22=258.454545454546   Z33=827   Z22=394   R33=9.42932064955307   R22=5.58943272987145   Color=Blue   FromFile=Yes   AMod=1   A2Mod=1   A3Mod=1   JMod=1   I2Mod=1   I3Mod=1   MMod=1   WMod=1 _
        SectInFile=HE220B   FileName="c:\program files (x86)\computers and structures\sap2000 14\euro.pro"   Notes="Imported 1/27/2019 4:12:26 PM from EURO.PRO"
   SectionName=HE240B   Material=ST37   Shape="I/Wide Flange"   t3=24   t2=24   tf=1.7   tw=1   t2b=24   tfb=1.7   FilletRadius=2.1   Area=106   TorsConst=104   I33=11260   I22=3923   I23=0   AS2=24   AS3=68   S33=938.333333333334 _
        S22=326.916666666667   Z33=1053   Z22=498   R33=10.3066199645829   R22=6.08353794779519   Color=Green   FromFile=Yes   AMod=1   A2Mod=1   A3Mod=1   JMod=1   I2Mod=1   I3Mod=1   MMod=1   WMod=1   SectInFile=HE240B _
        FileName="c:\program files (x86)\computers and structures\sap2000 14\euro.pro"   Notes="Imported 1/27/2019 4:12:26 PM from EURO.PRO"
   SectionName=HE260B   Material=ST37   Shape="I/Wide Flange"   t3=26   t2=26   tf=1.75   tw=1   t2b=26   tfb=1.75   FilletRadius=2.4   Area=118   TorsConst=127   I33=14920   I22=5135   I23=0   AS2=26   AS3=75.8333349609375 _
        S33=1147.69230769231   S22=395   Z33=1283   Z22=602   R33=11.2445843838757   R22=6.59673776593722   Color=Cyan   FromFile=Yes   AMod=1   A2Mod=1   A3Mod=1   JMod=1   I2Mod=1   I3Mod=1   MMod=1   WMod=1   SectInFile=HE260B _
        FileName="c:\program files (x86)\computers and structures\sap2000 14\euro.pro"   Notes="Imported 1/27/2019 4:12:26 PM from EURO.PRO"
   SectionName=HE280B   Material=ST37   Shape="I/Wide Flange"   t3=28   t2=28   tf=1.8   tw=1.05   t2b=28   tfb=1.8   FilletRadius=2.4   Area=131   TorsConst=146   I33=19270   I22=6595   I23=0   AS2=29.4   AS3=84   S33=1376.42857142857 _
        S22=471.071428571429   Z33=1534   Z22=718   R33=12.128447412642   R22=7.09531616282049   Color=Red   FromFile=Yes   AMod=1   A2Mod=1   A3Mod=1   JMod=1   I2Mod=1   I3Mod=1   MMod=1   WMod=1   SectInFile=HE280B _
        FileName="c:\program files (x86)\computers and structures\sap2000 14\euro.pro"   Notes="Imported 1/27/2019 4:12:26 PM from EURO.PRO"
   SectionName=HE300B   Material=ST37   Shape="I/Wide Flange"   t3=30   t2=30   tf=1.9   tw=1.1   t2b=30   tfb=1.9   FilletRadius=2.7   Area=149   TorsConst=189   I33=25170   I22=8563   I23=0   AS2=33   AS3=95   S33=1678 _
        S22=570.866666666667   Z33=1869   Z22=870   R33=12.9971602474019   R22=7.58088376495235   Color=Magenta   FromFile=Yes   AMod=1   A2Mod=1   A3Mod=1   JMod=1   I2Mod=1   I3Mod=1   MMod=1   WMod=1   SectInFile=HE300B _
        FileName="c:\program files (x86)\computers and structures\sap2000 14\euro.pro"   Notes="Imported 1/27/2019 4:12:26 PM from EURO.PRO"
   SectionName=HE320B   Material=ST37   Shape="I/Wide Flange"   t3=32   t2=30   tf=2.05   tw=1.15   t2b=30   tfb=2.05   FilletRadius=2.7   Area=161   TorsConst=230   I33=30820   I22=9239   I23=0   AS2=36.8   AS3=102.5   S33=1926.25 _
        S22=615.933333333334   Z33=2149   Z22=939   R33=13.8357714432037   R22=7.57529492281996   Color=Red   FromFile=Yes   AMod=1   A2Mod=1   A3Mod=1   JMod=1   I2Mod=1   I3Mod=1   MMod=1   WMod=1   SectInFile=HE320B _
        FileName="c:\program files (x86)\computers and structures\sap2000 14\euro.pro"   Notes="Imported 1/27/2019 4:12:26 PM from EURO.PRO"
   SectionName=IPE120   Material=ST37   Shape="I/Wide Flange"   t3=12   t2=6.4   tf=0.630000019073486   tw=0.440000009536743   t2b=6.4   tfb=0.630000019073486   FilletRadius=0.7   Area=13.2   TorsConst=1.69   I33=318   I22=27.7   I23=0 _
        AS2=5.28   AS3=6.72   S33=53   S22=8.65625   Z33=60.7   Z22=13.6   R33=4.90824908607021   R22=1.44861480335003   Color=Blue   FromFile=Yes   AMod=1   A2Mod=1   A3Mod=1   JMod=1   I2Mod=1   I3Mod=1   MMod=1   WMod=1 _
        SectInFile=IPE120   FileName="c:\program files (x86)\computers and structures\sap2000 14\euro.pro"   Notes="Imported 1/27/2019 4:11:46 PM from EURO.PRO"
   SectionName=IPE140   Material=ST37   Shape="I/Wide Flange"   t3=14   t2=7.3   tf=0.690000009536743   tw=0.469999980926514   t2b=7.3   tfb=0.690000009536743   FilletRadius=0.699999952316284   Area=16.4   TorsConst=2.4   I33=541   I22=44.9 _
        I23=0   AS2=6.58   AS3=8.395   S33=77.2857142857143   S22=12.3013698630137   Z33=88.3   Z22=19.2   R33=5.74350109933382   R22=1.65463134203628   Color=Green   FromFile=Yes   AMod=1   A2Mod=1   A3Mod=1   JMod=1   I2Mod=1   I3Mod=1 _
        MMod=1   WMod=1   SectInFile=IPE140   FileName="c:\program files (x86)\computers and structures\sap2000 14\euro.pro"   Notes="Imported 1/27/2019 4:11:46 PM from EURO.PRO"
   SectionName=IPE160   Material=ST37   Shape="I/Wide Flange"   t3=16   t2=8.2   tf=0.740000009536743   tw=0.5   t2b=8.2   tfb=0.740000009536743   FilletRadius=0.899999952316284   Area=20.1   TorsConst=3.54   I33=869   I22=68.3   I23=0 _
        AS2=8   AS3=10.1133331298828   S33=108.625   S22=16.6585365853659   Z33=124   Z22=26.1   R33=6.57524378603342   R22=1.84336918446869   Color=Cyan   FromFile=Yes   AMod=1   A2Mod=1   A3Mod=1   JMod=1   I2Mod=1   I3Mod=1   MMod=1 _
        WMod=1   SectInFile=IPE160   FileName="c:\program files (x86)\computers and structures\sap2000 14\euro.pro"   Notes="Imported 1/27/2019 4:11:46 PM from EURO.PRO"
   SectionName=IPE180   Material=ST37   Shape="I/Wide Flange"   t3=18   t2=9.1   tf=0.8   tw=0.530000019073486   t2b=9.1   tfb=0.8   FilletRadius=0.9   Area=23.9   TorsConst=4.73   I33=1317   I22=101   I23=0   AS2=9.54 _
        AS3=12.1333337402344   S33=146.333333333333   S22=22.1978021978022   Z33=166   Z22=34.6   R33=7.42324743696856   R22=2.05570946940324   Color=Red   FromFile=Yes   AMod=1   A2Mod=1   A3Mod=1   JMod=1   I2Mod=1   I3Mod=1   MMod=1 _
        WMod=1   SectInFile=IPE180   FileName="c:\program files (x86)\computers and structures\sap2000 14\euro.pro"   Notes="Imported 1/27/2019 4:11:46 PM from EURO.PRO"
   SectionName=IPE200   Material=ST37   Shape="I/Wide Flange"   t3=20   t2=10   tf=0.85   tw=0.559999990463257   t2b=10   tfb=0.85   FilletRadius=1.2   Area=28.5   TorsConst=6.92   I33=1943   I22=142   I23=0   AS2=11.2 _
        AS3=14.1666662597656   S33=194.3   S22=28.4   Z33=221   Z22=44.6   R33=8.25684192633547   R22=2.23214160400967   Color=Magenta   FromFile=Yes   AMod=1   A2Mod=1   A3Mod=1   JMod=1   I2Mod=1   I3Mod=1   MMod=1   WMod=1 _
        SectInFile=IPE200   FileName="c:\program files (x86)\computers and structures\sap2000 14\euro.pro"   Notes="Imported 1/27/2019 4:11:46 PM from EURO.PRO"
   SectionName=IPE220   Material=ST37   Shape="I/Wide Flange"   t3=22   t2=11   tf=0.919999980926514   tw=0.590000009536743   t2b=11   tfb=0.919999980926514   FilletRadius=1.20000009536743   Area=33.4   TorsConst=9.03   I33=2772   I22=205 _
        I23=0   AS2=12.98   AS3=16.8666662597656   S33=252   S22=37.2727272727273   Z33=285   Z22=58.1   R33=9.11010493770779   R22=2.47744314786398   Color=Yellow   FromFile=Yes   AMod=1   A2Mod=1   A3Mod=1   JMod=1   I2Mod=1   I3Mod=1 _
        MMod=1   WMod=1   SectInFile=IPE220   FileName="c:\program files (x86)\computers and structures\sap2000 14\euro.pro"   Notes="Imported 1/27/2019 4:11:46 PM from EURO.PRO"
   SectionName=IPE240   Material=ST37   Shape="I/Wide Flange"   t3=24   t2=12   tf=0.980000019073486   tw=0.619999980926514   t2b=12   tfb=0.980000019073486   FilletRadius=1.49999990463257   Area=39.1   TorsConst=13   I33=3892   I22=284 _
        I23=0   AS2=14.88   AS3=19.6   S33=324.333333333333   S22=47.3333333333333   Z33=367   Z22=73.9   R33=9.97695554484102   R22=2.69507460193116   Color=White   FromFile=Yes   AMod=1   A2Mod=1   A3Mod=1   JMod=1   I2Mod=1   I3Mod=1 _
        MMod=1   WMod=1   SectInFile=IPE240   FileName="c:\program files (x86)\computers and structures\sap2000 14\euro.pro"   Notes="Imported 1/27/2019 4:11:46 PM from EURO.PRO"
   SectionName=IPE270   Material=ST37   Shape="I/Wide Flange"   t3=27   t2=13.5   tf=1.01999998092651   tw=0.659999990463257   t2b=13.5   tfb=1.01999998092651   FilletRadius=1.50000009536743   Area=45.9   TorsConst=15.9   I33=5790   I22=420 _
        I23=0   AS2=17.82   AS3=22.95   S33=428.888888888889   S22=62.2222222222222   Z33=484   Z22=97   R33=11.2313752875449   R22=3.0249507099101   Color=Gray8Dark   FromFile=Yes   AMod=1   A2Mod=1   A3Mod=1   JMod=1   I2Mod=1   I3Mod=1 _
        MMod=1   WMod=1   SectInFile=IPE270   FileName="c:\program files (x86)\computers and structures\sap2000 14\euro.pro"   Notes="Imported 1/27/2019 4:11:46 PM from EURO.PRO"
   SectionName=IPE300   Material=ST37   Shape="I/Wide Flange"   t3=30   t2=15   tf=1.06999998092651   tw=0.709999990463257   t2b=15   tfb=1.06999998092651   FilletRadius=1.50000009536743   Area=53.8   TorsConst=19.9   I33=8356   I22=604 _
        I23=0   AS2=21.3   AS3=26.75   S33=557.066666666667   S22=80.5333333333334   Z33=628   Z22=125   R33=12.4625834051416   R22=3.35063662596476   Color=Blue   FromFile=Yes   AMod=1   A2Mod=1   A3Mod=1   JMod=1   I2Mod=1   I3Mod=1 _
        MMod=1   WMod=1   SectInFile=IPE300   FileName="c:\program files (x86)\computers and structures\sap2000 14\euro.pro"   Notes="Imported 1/27/2019 4:11:46 PM from EURO.PRO"
   SectionName=IPE330   Material=ST37   Shape="I/Wide Flange"   t3=33   t2=16   tf=1.15   tw=0.75   t2b=16   tfb=1.15   FilletRadius=1.8   Area=62.6   TorsConst=28.1   I33=11770   I22=788   I23=0   AS2=24.75   AS3=30.6666674804688 _
        S33=713.333333333334   S22=98.5   Z33=804   Z22=154   R33=13.7120082164894   R22=3.54793734794178   Color=Gray8Dark   FromFile=Yes   AMod=1   A2Mod=1   A3Mod=1   JMod=1   I2Mod=1   I3Mod=1   MMod=1   WMod=1   SectInFile=IPE330 _
        FileName="c:\program files (x86)\computers and structures\sap2000 14\euro.pro"   Notes="Imported 1/27/2019 4:11:46 PM from EURO.PRO"
 
TABLE:  "FRAME SECTION PROPERTIES 04 - AUTO SELECT"
   ListName=AutoBeam1   SectionName=IPE120
   ListName=AutoBeam1   SectionName=IPE140
   ListName=AutoBeam1   SectionName=IPE160
   ListName=AutoBeam1   SectionName=IPE180
   ListName=AutoBeam1   SectionName=IPE200
   ListName=AutoBeam1   SectionName=IPE220
   ListName=AutoBeam1   SectionName=IPE240
   ListName=AutoBeam1   SectionName=IPE270
   ListName=AutoBeam1   SectionName=IPE300
   ListName=AutoBeam1   SectionName=IPE330
   ListName=AutoBeam2   SectionName=IPE120
   ListName=AutoBeam2   SectionName=IPE140
   ListName=AutoBeam2   SectionName=IPE160
   ListName=AutoBeam2   SectionName=IPE180
   ListName=AutoBeam2   SectionName=IPE200
   ListName=AutoBeam2   SectionName=IPE220
   ListName=AutoBeam2   SectionName=IPE240
   ListName=AutoBeam2   SectionName=IPE270
   ListName=AutoBeam2   SectionName=IPE300
   ListName=AutoBeam2   SectionName=IPE330
   ListName=AutoCol1   SectionName=HE140B
   ListName=AutoCol1   SectionName=HE160B
   ListName=AutoCol1   SectionName=HE180B
   ListName=AutoCol1   SectionName=HE200B
   ListName=AutoCol1   SectionName=HE220B
   ListName=AutoCol1   SectionName=HE240B
   ListName=AutoCol1   SectionName=HE260B
   ListName=AutoCol1   SectionName=HE280B
   ListName=AutoCol1   SectionName=HE300B
   ListName=AutoCol1   SectionName=HE320B
   ListName=AutoCol2   SectionName=HE140B
   ListName=AutoCol2   SectionName=HE160B
   ListName=AutoCol2   SectionName=HE180B
   ListName=AutoCol2   SectionName=HE200B
   ListName=AutoCol2   SectionName=HE220B
   ListName=AutoCol2   SectionName=HE240B
   ListName=AutoCol2   SectionName=HE260B
   ListName=AutoCol2   SectionName=HE280B
   ListName=AutoCol2   SectionName=HE300B
   ListName=AutoCol2   SectionName=HE320B
 
TABLE:  "FRAME SECTION PROPERTIES 13 - TIME DEPENDENT"
   SectionName=HE140B   TypeSize=Auto   AutoSFSize=1
   SectionName=HE160B   TypeSize=Auto   AutoSFSize=1
   SectionName=HE180B   TypeSize=Auto   AutoSFSize=1
   SectionName=HE200B   TypeSize=Auto   AutoSFSize=1
   SectionName=HE220B   TypeSize=Auto   AutoSFSize=1
   SectionName=HE240B   TypeSize=Auto   AutoSFSize=1
   SectionName=HE260B   TypeSize=Auto   AutoSFSize=1
   SectionName=HE280B   TypeSize=Auto   AutoSFSize=1
   SectionName=HE300B   TypeSize=Auto   AutoSFSize=1
   SectionName=HE320B   TypeSize=Auto   AutoSFSize=1
   SectionName=IPE120   TypeSize=Auto   AutoSFSize=1
   SectionName=IPE140   TypeSize=Auto   AutoSFSize=1
   SectionName=IPE160   TypeSize=Auto   AutoSFSize=1
   SectionName=IPE180   TypeSize=Auto   AutoSFSize=1
   SectionName=IPE200   TypeSize=Auto   AutoSFSize=1
   SectionName=IPE220   TypeSize=Auto   AutoSFSize=1
   SectionName=IPE240   TypeSize=Auto   AutoSFSize=1
   SectionName=IPE270   TypeSize=Auto   AutoSFSize=1
   SectionName=IPE300   TypeSize=Auto   AutoSFSize=1
   SectionName=IPE330   TypeSize=Auto   AutoSFSize=1
 
TABLE:  "FUNCTION - PLOT FUNCTIONS"
   PlotFunc="Input Energy"   Type=Energy   Component=Input   Mode=All
   PlotFunc=Joint37   Type=Joint   ObjectLabel=37   Component=RelDispU1   Mode=All
   PlotFunc=Joint37-1   Type=Joint   ObjectLabel=37   Component=RelAccelU1   Mode=All
   PlotFunc=Joint30   Type=Joint   ObjectLabel=30   Component=RelDispU1   Mode=All
   PlotFunc=Joint29   Type=Joint   ObjectLabel=29   Component=RelDispU1   Mode=All
   PlotFunc=Joint30-1   Type=Joint   ObjectLabel=30   Component=RelDispU1   Mode=All
   PlotFunc="Base Shear X"   Type=BaseReac   Component=VX   Mode=All
 
TABLE:  "FUNCTION - POWER SPECTRAL DENSITY - USER"
   Name=UNIFPSD   Frequency=0   Value=1
   Name=UNIFPSD   Frequency=1   Value=1
 
TABLE:  "FUNCTION - RESPONSE SPECTRUM - USER"
   Name=UNIFRS   Period=0   Accel=1   FuncDamp=0.05
   Name=UNIFRS   Period=1   Accel=1
 
TABLE:  "FUNCTION - STEADY STATE - USER"
   Name=UNIFSS   Frequency=0   Value=1
   Name=UNIFSS   Frequency=10   Value=1
   Name=Impact_Unif   Frequency=0   Value=1
   Name=Impact_Unif   Frequency=20   Value=1
 
TABLE:  "FUNCTION - TIME HISTORY - USER"
   Name=EarthquackeAccXDir   Time=0   Value=-0.00208
   Name=EarthquackeAccXDir   Time=0.02   Value=-0.002007
   Name=EarthquackeAccXDir   Time=0.04   Value=-0.001846
   Name=EarthquackeAccXDir   Time=0.06   Value=-0.0039
   Name=EarthquackeAccXDir   Time=0.08   Value=-0.003108
   Name=EarthquackeAccXDir   Time=0.1   Value=-0.003746
   Name=EarthquackeAccXDir   Time=0.12   Value=-0.006446
   Name=EarthquackeAccXDir   Time=0.14   Value=-0.0101
   Name=EarthquackeAccXDir   Time=0.16   Value=-0.0113
   Name=EarthquackeAccXDir   Time=0.18   Value=-0.002075
   Name=EarthquackeAccXDir   Time=0.2   Value=0.003035
   Name=EarthquackeAccXDir   Time=0.22   Value=-0.0004392
   Name=EarthquackeAccXDir   Time=0.24   Value=-0.003525
   Name=EarthquackeAccXDir   Time=0.26   Value=-0.002785
   Name=EarthquackeAccXDir   Time=0.28   Value=0.001248
   Name=EarthquackeAccXDir   Time=0.3   Value=0.008165
   Name=EarthquackeAccXDir   Time=0.32   Value=0.0128
   Name=EarthquackeAccXDir   Time=0.34   Value=0.016
   Name=EarthquackeAccXDir   Time=0.36   Value=0.0175
   Name=EarthquackeAccXDir   Time=0.38   Value=0.019
# ... 2180 like lines cut
   Name=EarthquackeAccYDir   Time=0   Value=0.002993
   Name=EarthquackeAccYDir   Time=0.02   Value=-0.0104
   Name=EarthquackeAccYDir   Time=0.04   Value=-0.0151
   Name=EarthquackeAccYDir   Time=0.06   Value=-0.00597
   Name=EarthquackeAccYDir   Time=0.08   Value=0.003204
   Name=EarthquackeAccYDir   Time=0.1   Value=0.002874
   Name=EarthquackeAccYDir   Time=0.12   Value=-0.0168
   Name=EarthquackeAccYDir   Time=0.14   Value=-0.024
   Name=EarthquackeAccYDir   Time=0.16   Value=-0.012
   Name=EarthquackeAccYDir   Time=0.18   Value=-0.002321
   Name=EarthquackeAccYDir   Time=0.2   Value=-0.008641
   Name=EarthquackeAccYDir   Time=0.22   Value=-0.0202
   Name=EarthquackeAccYDir   Time=0.24   Value=-0.0233
   Name=EarthquackeAccYDir   Time=0.26   Value=-0.0194
   Name=EarthquackeAccYDir   Time=0.28   Value=-0.0142
   Name=EarthquackeAccYDir   Time=0.3   Value=-0.006771
   Name=EarthquackeAccYDir   Time=0.32   Value=-0.0001617
   Name=EarthquackeAccYDir   Time=0.34   Value=0.002764
   Name=EarthquackeAccYDir   Time=0.36   Value=0.0103
   Name=EarthquackeAccYDir   Time=0.38   Value=0.009713
# ... 2180 like lines cut
 
TABLE:  "GRID LINES"
   CoordSys=GLOBAL   AxisDir=X   GridID=A   XRYZCoord=-750   LineType=Primary   LineColor=Gray8Dark   Visible=Yes   BubbleLoc=End   AllVisible=Yes   BubbleSize=106.25
   CoordSys=GLOBAL   AxisDir=X   GridID=B   XRYZCoord=-250   LineType=Primary   LineColor=Gray8Dark   Visible=Yes   BubbleLoc=End
   CoordSys=GLOBAL   AxisDir=X   GridID=C   XRYZCoord=250   LineType=Primary   LineColor=Gray8Dark   Visible=Yes   BubbleLoc=End
   CoordSys=GLOBAL   AxisDir=X   GridID=D   XRYZCoord=750   LineType=Primary   LineColor=Gray8Dark   Visible=Yes   BubbleLoc=End
   CoordSys=GLOBAL   AxisDir=Y   GridID=1   XRYZCoord=-500   LineType=Primary   LineColor=Gray8Dark   Visible=Yes   BubbleLoc=Start
   CoordSys=GLOBAL   AxisDir=Y   GridID=2   XRYZCoord=0   LineType=Primary   LineColor=Gray8Dark   Visible=Yes   BubbleLoc=Start
   CoordSys=GLOBAL   AxisDir=Y   GridID=3   XRYZCoord=500   LineType=Primary   LineColor=Gray8Dark   Visible=Yes   BubbleLoc=Start
   CoordSys=GLOBAL   AxisDir=Z   GridID=Z1   XRYZCoord=0   LineType=Primary   LineColor=Gray8Dark   Visible=Yes   BubbleLoc=End
   CoordSys=GLOBAL   AxisDir=Z   GridID=Z2   XRYZCoord=300   LineType=Primary   LineColor=Gray8Dark   Visible=Yes   BubbleLoc=End
   CoordSys=GLOBAL   AxisDir=Z   GridID=Z3   XRYZCoord=600   LineType=Primary   LineColor=Gray8Dark   Visible=Yes   BubbleLoc=End
 
TABLE:  "GROUPS 1 - DEFINITIONS"
   GroupName=ALL   Selection=Yes   SectionCut=Yes   Steel=Yes   Concrete=Yes   Aluminum=Yes   ColdFormed=Yes   Stage=Yes   Bridge=Yes   AutoSeismic=No   AutoWind=No   SelDesSteel=No   SelDesAlum=No   SelDesCold=No   MassWeight=Yes   Color=Red
   GroupName=Sensor_Points   Selection=Yes   SectionCut=Yes   Steel=Yes   Concrete=Yes   Aluminum=Yes   ColdFormed=Yes   Stage=Yes   Bridge=Yes   AutoSeismic=No   AutoWind=No   SelDesSteel=No   SelDesAlum=No   SelDesCold=No   MassWeight=Yes   Color=Green
 
TABLE:  "GROUPS 2 - ASSIGNMENTS"
   GroupName=Sensor_Points   ObjectType=Joint   ObjectLabel=8
   GroupName=Sensor_Points   ObjectType=Joint   ObjectLabel=9
   GroupName=Sensor_Points   ObjectType=Joint   ObjectLabel=29
   GroupName=Sensor_Points   ObjectType=Joint   ObjectLabel=30
 
TABLE:  "JOINT CONSTRAINT ASSIGNMENTS"
   Joint=1   Constraint=EQUAL1
   Joint=2   Constraint=DIAPH1_300.
   Joint=2   Constraint=EQUAL1
   Joint=3   Constraint=DIAPH1_600.
   Joint=3   Constraint=EQUAL1
   Joint=4   Constraint=EQUAL1
   Joint=5   Constraint=DIAPH1_300.
   Joint=5   Constraint=EQUAL1
   Joint=6   Constraint=DIAPH1_600.
   Joint=6   Constraint=EQUAL1
   Joint=7   Constraint=EQUAL1
   Joint=8   Constraint=DIAPH1_300.
   Joint=8   Constraint=EQUAL1
   Joint=9   Constraint=DIAPH1_600.
   Joint=9   Constraint=EQUAL1
   Joint=10   Constraint=EQUAL1
   Joint=11   Constraint=DIAPH1_300.
   Joint=11   Constraint=EQUAL1
   Joint=12   Constraint=DIAPH1_600.
   Joint=12   Constraint=EQUAL1
   Joint=13   Constraint=EQUAL1
   Joint=14   Constraint=DIAPH1_300.
   Joint=14   Constraint=EQUAL1
   Joint=15   Constraint=DIAPH1_600.
   Joint=15   Constraint=EQUAL1
   Joint=16   Constraint=EQUAL1
   Joint=17   Constraint=DIAPH1_300.
   Joint=17   Constraint=EQUAL1
   Joint=18   Constraint=DIAPH1_600.
   Joint=18   Constraint=EQUAL1
   Joint=19   Constraint=EQUAL1
   Joint=20   Constraint=DIAPH1_300.
   Joint=20   Constraint=EQUAL1
   Joint=21   Constraint=DIAPH1_600.
   Joint=21   Constraint=EQUAL1
   Joint=22   Constraint=EQUAL1
   Joint=23   Constraint=DIAPH1_300.
   Joint=23   Constraint=EQUAL1
   Joint=24   Constraint=DIAPH1_600.
   Joint=24   Constraint=EQUAL1
   Joint=25   Constraint=EQUAL1
   Joint=26   Constraint=DIAPH1_300.
   Joint=26   Constraint=EQUAL1
   Joint=27   Constraint=DIAPH1_600.
   Joint=27   Constraint=EQUAL1
   Joint=28   Constraint=EQUAL1
   Joint=29   Constraint=DIAPH1_300.
   Joint=29   Constraint=EQUAL1
   Joint=30   Constraint=DIAPH1_600.
   Joint=30   Constraint=EQUAL1
   Joint=31   Constraint=EQUAL1
   Joint=32   Constraint=DIAPH1_300.
   Joint=32   Constraint=EQUAL1
   Joint=33   Constraint=DIAPH1_600.
   Joint=33   Constraint=EQUAL1
   Joint=34   Constraint=EQUAL1
   Joint=35   Constraint=DIAPH1_300.
   Joint=35   Constraint=EQUAL1
   Joint=36   Constraint=DIAPH1_600.
   Joint=36   Constraint=EQUAL1
   Joint=37   Constraint=DIAPH1_600.
   Joint=38   Constraint=DIAPH1_300.
 
TABLE:  "JOINT COORDINATES"
   Joint=1   CoordSys=GLOBAL   CoordType=Cartesian   XorR=-750   Y=-500   Z=0   SpecialJt=No
   Joint=2   CoordSys=GLOBAL   CoordType=Cartesian   XorR=-750   Y=-500   Z=300   SpecialJt=No
   Joint=3   CoordSys=GLOBAL   CoordType=Cartesian   XorR=-750   Y=-500   Z=600   SpecialJt=No
   Joint=4   CoordSys=GLOBAL   CoordType=Cartesian   XorR=-750   Y=0   Z=0   SpecialJt=No
   Joint=5   CoordSys=GLOBAL   CoordType=Cartesian   XorR=-750   Y=0   Z=300   SpecialJt=No
   Joint=6   CoordSys=GLOBAL   CoordType=Cartesian   XorR=-750   Y=0   Z=600   SpecialJt=No
   Joint=7   CoordSys=GLOBAL   CoordType=Cartesian   XorR=-750   Y=500   Z=0   SpecialJt=No
   Joint=8   CoordSys=GLOBAL   CoordType=Cartesian   XorR=-750   Y=500   Z=300   SpecialJt=No
   Joint=9   CoordSys=GLOBAL   CoordType=Cartesian   XorR=-750   Y=500   Z=600   SpecialJt=No
   Joint=10   CoordSys=GLOBAL   CoordType=Cartesian   XorR=-250   Y=-500   Z=0   SpecialJt=No
   Joint=11   CoordSys=GLOBAL   CoordType=Cartesian   XorR=-250   Y=-500   Z=300   SpecialJt=No
   Joint=12   CoordSys=GLOBAL   CoordType=Cartesian   XorR=-250   Y=-500   Z=600   SpecialJt=No
   Joint=13   CoordSys=GLOBAL   CoordType=Cartesian   XorR=-250   Y=0   Z=0   SpecialJt=No
   Joint=14   CoordSys=GLOBAL   CoordType=Cartesian   XorR=-250   Y=0   Z=300   SpecialJt=No
   Joint=15   CoordSys=GLOBAL   CoordType=Cartesian   XorR=-250   Y=0   Z=600   SpecialJt=No
   Joint=16   CoordSys=GLOBAL   CoordType=Cartesian   XorR=-250   Y=500   Z=0   SpecialJt=No
   Joint=17   CoordSys=GLOBAL   CoordType=Cartesian   XorR=-250   Y=500   Z=300   SpecialJt=No
   Joint=18   CoordSys=GLOBAL   CoordType=Cartesian   XorR=-250   Y=500   Z=600   SpecialJt=No
   Joint=19   CoordSys=GLOBAL   CoordType=Cartesian   XorR=250   Y=-500   Z=0   SpecialJt=No
   Joint=20   CoordSys=GLOBAL   CoordType=Cartesian   XorR=250   Y=-500   Z=300   SpecialJt=No
# ... 16 like lines cut
   Joint=37   CoordSys=GLOBAL   CoordType=Cartesian   XorR=-0.000796400232427885   Y=0   Z=600   SpecialJt=Yes
   Joint=38   CoordSys=GLOBAL   CoordType=Cartesian   XorR=0.000413566615786731   Y=0   Z=300   SpecialJt=Yes
 
TABLE:  "JOINT LOADS - FORCE"
   Joint=6   LoadPat=P_Load   CoordSys=GLOBAL   F1=150   F2=0   F3=0   M1=0   M2=0   M3=0   GUID=9dd74fde-4714-4816-bf32-f72a2f7ffa1d
 
TABLE:  "JOINT PATTERN DEFINITIONS"
   Pattern=Default
 
TABLE:  "JOINT RESTRAINT ASSIGNMENTS"
   Joint=1   U1=Yes   U2=Yes   U3=Yes   R1=Yes   R2=Yes   R3=Yes
   Joint=4   U1=Yes   U2=Yes   U3=Yes   R1=Yes   R2=Yes   R3=Yes
   Joint=7   U1=Yes   U2=Yes   U3=Yes   R1=Yes   R2=Yes   R3=Yes
   Joint=10   U1=Yes   U2=Yes   U3=Yes   R1=Yes   R2=Yes   R3=Yes
   Joint=13   U1=Yes   U2=Yes   U3=Yes   R1=Yes   R2=Yes   R3=Yes
   Joint=16   U1=Yes   U2=Yes   U3=Yes   R1=Yes   R2=Yes   R3=Yes
   Joint=19   U1=Yes   U2=Yes   U3=Yes   R1=Yes   R2=Yes   R3=Yes
   Joint=22   U1=Yes   U2=Yes   U3=Yes   R1=Yes   R2=Yes   R3=Yes
   Joint=25   U1=Yes   U2=Yes   U3=Yes   R1=Yes   R2=Yes   R3=Yes
   Joint=28   U1=Yes   U2=Yes   U3=Yes   R1=Yes   R2=Yes   R3=Yes
   Joint=31   U1=Yes   U2=Yes   U3=Yes   R1=Yes   R2=Yes   R3=Yes
   Joint=34   U1=Yes   U2=Yes   U3=Yes   R1=Yes   R2=Yes   R3=Yes
 
TABLE:  "LOAD CASE DEFINITIONS"
   Case=MODAL   Type=LinModal   InitialCond=Zero   DesTypeOpt="Prog Det"   DesignType=Other   DesActOpt="Prog Det"   DesignAct=Other   AutoType=None   RunCase=Yes
   Case=RHA_Earthquacke   Type=LinModHist   InitialCond=Zero   ModalCase=MODAL   DesTypeOpt="Prog Det"   DesignType=Quake   DesActOpt="Prog Det"   DesignAct="Short-Term Composite"   AutoType=None   RunCase=Yes   GUID=ceabf875-dc59-4349-8585-e82495a97a12
 
TABLE:  "LOAD PATTERN DEFINITIONS"
   LoadPat=DEAD   DesignType=Dead   SelfWtMult=1
   LoadPat=LIVE   DesignType=Live   SelfWtMult=0
   LoadPat=PART   DesignType=Dead   SelfWtMult=0
   LoadPat=MASS   DesignType=Other   SelfWtMult=0
   LoadPat=P_Load   DesignType=Other   SelfWtMult=0
 
TABLE:  "MASS SOURCE"
   MassSource=MSSSRC1   Elements=No   Masses=No   Loads=Yes   IsDefault=Yes   LoadPat=DEAD   Multiplier=1
   MassSource=MSSSRC1   LoadPat=LIVE   Multiplier=1
   MassSource=MSSSRC1   LoadPat=PART   Multiplier=1
   MassSource=MSSSRC1   LoadPat=MASS   Multiplier=1
 
TABLE:  "MATERIAL PROPERTIES 01 - GENERAL"
   Material=A416Gr270   Type=Tendon   Grade="Grade 270"   SymType=Uniaxial   TempDepend=No   Color=Magenta   GUID=e48cebbb-ee7a-4241-9c7c-17c4f05901d6   Notes="ASTM A416 Grade 270 5/15/2022 09:01:39"
   Material=C25   Type=Concrete   SymType=Isotropic   TempDepend=No   Color=Blue   Notes="Normalweight f'c = 4 ksi added 1/27/2019 4:08:20 PM"
   Material=ST37   Type=Steel   SymType=Isotropic   TempDepend=No   Color=Gray8Dark   Notes="ASTM A992 Fy=50 ksi added 1/27/2019 4:08:20 PM"
 
TABLE:  "MATERIAL PROPERTIES 02 - BASIC MECHANICAL PROPERTIES"
   Material=A416Gr270   UnitWeight=0.00784904757236607   UnitMass=8.0038007068661E-06   E1=2003748.43449687   A1=1.16999994421006E-05
   Material=C25   UnitWeight=0   UnitMass=0   E1=235000   G12=97916.6666666667   U12=0.2   A1=9.9E-06
   Material=ST37   UnitWeight=0.00784904757236607   UnitMass=8.00380070686609E-06   E1=2100000   G12=807692.307692308   U12=0.3   A1=1.17E-05
 
TABLE:  "MATERIAL PROPERTIES 03A - STEEL DATA"
   Material=ST37   Fy=2400   Fu=3700   EffFy=2880   EffFu=4440   SSCurveOpt=Simple   SSHysType=Kinematic   SHard=0.015   SMax=0.11   SRup=0.17   FinalSlope=-0.1   CoupModType="Von Mises"
 
TABLE:  "MATERIAL PROPERTIES 03B - CONCRETE DATA"
   Material=C25   Fc=250   eFc=250   LtWtConc=No   SSCurveOpt=Mander   SSHysType=Takeda   SFc=0.00221914221766202   SCap=0.005   FinalSlope=-0.1   FAngle=0   DAngle=0   CoupModType="Modified Darwin-Pecknold"
 
TABLE:  "MATERIAL PROPERTIES 03F - TENDON DATA"
   Material=A416Gr270   Fy=17232.2365366731   Fu=18982.8799057598   SSCurveOpt="270 ksi"   SSHysType=Kinematic   FinalSlope=-0.1   CoupModType="Von Mises"
 
TABLE:  "MATERIAL PROPERTIES 03J - COUPLED NONLINEAR VON MISES DATA"
   Material=A416Gr270   YieldStress=17232.2365366731   LinIsoHard=No   LinKinHard=No   NLIsoSaHard=No
   Material=ST37   YieldStress=2880   LinIsoHard=No   LinKinHard=No   NLIsoSaHard=No
 
TABLE:  "MATERIAL PROPERTIES 06 - DAMPING PARAMETERS"
   Material=A416Gr270   ModalRatio=0   VisMass=0   VisStiff=0   HysMass=0   HysStiff=0
   Material=C25   ModalRatio=0   VisMass=0   VisStiff=0   HysMass=0   HysStiff=0
   Material=ST37   ModalRatio=0   VisMass=0   VisStiff=0   HysMass=0   HysStiff=0
 
TABLE:  "MATERIAL PROPERTIES 09 - ACCEPTANCE CRITERIA"
   Material=A416Gr270   IOTens=0.015   LSTens=0.023   CPTens=0.03   IOComp=-0.015   LSComp=-0.023   CPComp=-0.03
   Material=C25   IOTens=0.01   LSTens=0.02   CPTens=0.05   IOComp=-0.003   LSComp=-0.006   CPComp=-0.015   IgnoreTens=Yes
   Material=ST37   IOTens=0.01   LSTens=0.02   CPTens=0.05   IOComp=-0.005   LSComp=-0.01   CPComp=-0.02
 
TABLE:  "OPTIONS - COLORS - DISPLAY"
   DeviceType=Screen   Points=Blue   LinesFrame=Blue   LinesFrmDL=Blue   LinesCable=Green   LinesTendon=Green   SpringLinks=Green   Restraints=Green   Releases=Green   Axes=Cyan   Text=Black   ShadowLines=Gray8Dark   GuideLines=Gray8Dark _
        Highlight=Red   Selection=10504778   AreaFillBot=Red   AreaFillTop=16744703   AreaFillSd=Red   AreaEdge=DarkRed   SolidF1=Red   SolidF2=Blue   SolidF3=Green   SolidF4=Yellow   SolidF5=White   SolidF6=Cyan   SolidEdge=DarkRed _
        Floor=Gray4   Background=White   BGLowLeft=White   BGLowRight=White   BGUpRight=White   Darkness=0.5
   DeviceType=Printer   Points=Gray8Dark   LinesFrame=Black   LinesFrmDL=Gray4   LinesCable=Black   LinesTendon=Black   SpringLinks=Gray8Dark   Restraints=Gray8Dark   Releases=Gray4   Axes=Black   Text=Black   ShadowLines=Gray4 _
        GuideLines=Gray4   Highlight=Black   Selection=Black   AreaFillBot=Gray4   AreaFillTop=Gray8Dark   AreaFillSd=Gray4   AreaEdge=Black   SolidF1=Gray1Light   SolidF2=Gray2   SolidF3=Gray3   SolidF4=Gray4   SolidF5=Gray5 _
        SolidF6=Gray6   SolidEdge=Black   Floor=Gray4   Background=White   BGLowLeft=White   BGLowRight=White   BGUpRight=White   Darkness=0.5
   DeviceType="Color Printer"   Points=Black   LinesFrame=7303023   LinesFrmDL=Blue   LinesCable=Green   LinesTendon=Green   SpringLinks=Green   Restraints=9408399   Releases=Green   Axes=Cyan   Text=Black   ShadowLines=Gray8Dark _
        GuideLines=10461087   Highlight=Red   Selection=10504778   AreaFillBot=16634568   AreaFillTop=14277119   AreaFillSd=16634568   AreaEdge=7303023   SolidF1=10122991   SolidF2=16756912   SolidF3=11599795   SolidF4=12713983 _
        SolidF5=White   SolidF6=16777128   SolidEdge=7303023   Floor=13619151   Background=White   BGLowLeft=White   BGLowRight=14671839   BGUpRight=White   Darkness=0.5
 
TABLE:  "OPTIONS - COLORS - OUTPUT"
   DeviceType=Screen   Contour1=13107400   Contour2=6553828   Contour3=Red   Contour4=16639   Contour5=Orange   Contour6=43775   Contour7=54527   Contour8=Yellow   Contour9=65408   Contour10=Green   Contour11=8453888   Contour12=Cyan _
        Contour13=16755200   Contour14=16733440   Contour15=Blue   Transpare=0.5   Ratio1=Cyan   Ratio2=Green   Ratio3=Yellow   Ratio4=Orange   Ratio5=Red   RatioNotD=Gray4   RatioNotC=Red   RatioVal1=0.5   RatioVal2=0.7   RatioVal3=0.9 _
        RatioVal4=1   DFillPos=Blue   DFillNeg=Red   DFillRPos=Green   DFillRNeg=Green
   DeviceType=Printer   Contour1=Black   Contour2=3158064   Contour3=4210752   Contour4=5263440   Contour5=6316128   Contour6=7368816   Contour7=Gray8Dark   Contour8=Gray7   Contour9=Gray6   Contour10=Gray5   Contour11=Gray4 _
        Contour12=Gray3   Contour13=Gray2   Contour14=Gray1Light   Contour15=White   Transpare=0   Ratio1=Gray2   Ratio2=Gray4   Ratio3=Gray8Dark   Ratio4=4210752   Ratio5=Black   RatioNotD=Gray4   RatioNotC=Black   RatioVal1=0.5 _
        RatioVal2=0.7   RatioVal3=0.9   RatioVal4=1   DFillPos=Gray8Dark   DFillNeg=Gray8Dark   DFillRPos=4210752   DFillRNeg=4210752
   DeviceType="Color Printer"   Contour1=13107400   Contour2=6553828   Contour3=Red   Contour4=16639   Contour5=Orange   Contour6=43775   Contour7=54527   Contour8=Yellow   Contour9=65408   Contour10=Green   Contour11=8453888 _
        Contour12=Cyan   Contour13=16755200   Contour14=16733440   Contour15=Blue   Transpare=0.5   Ratio1=Cyan   Ratio2=Green   Ratio3=Yellow   Ratio4=Orange   Ratio5=Red   RatioNotD=Gray4   RatioNotC=Red   RatioVal1=0.5   RatioVal2=0.7 _
        RatioVal3=0.9   RatioVal4=1   DFillPos=Red   DFillNeg=Red   DFillRPos=Blue   DFillRNeg=Blue
 
TABLE:  "OVERWRITES - STEEL DESIGN - AISC-LRFD93"
   Frame=1   DesignSect="Program Determined"   FrameType="Program Determined"   Fy=0   RLLF=0   AreaRatio=0   XLMajor=0   XLMinor=0   XKMajor=0   XKMinor=0   CmMajor=0   CmMinor=0   Cb=0   B1Major=0   B1Minor=0   B2Major=0   B2Minor=0 _
        PhiPnc=0   PhiPnt=0   PhiMn3=0   PhiMn2=0   PhiVn2=0   PhiVn3=0   CheckDefl="Program Determined"   DeflType="Program Determined"   DLRat=0   SDLAndLLRat=0   LLRat=0   TotalRat=0   NetRat=0   DLAbs=0   SDLAndLLAbs=0   LLAbs=0 _
        TotalAbs=0   NetAbs=0   SpecCamber=0
   Frame=2   DesignSect="Program Determined"   FrameType="Program Determined"   Fy=0   RLLF=0   AreaRatio=0   XLMajor=0   XLMinor=0   XKMajor=0   XKMinor=0   CmMajor=0   CmMinor=0   Cb=0   B1Major=0   B1Minor=0   B2Major=0   B2Minor=0 _
        PhiPnc=0   PhiPnt=0   PhiMn3=0   PhiMn2=0   PhiVn2=0   PhiVn3=0   CheckDefl="Program Determined"   DeflType="Program Determined"   DLRat=0   SDLAndLLRat=0   LLRat=0   TotalRat=0   NetRat=0   DLAbs=0   SDLAndLLAbs=0   LLAbs=0 _
        TotalAbs=0   NetAbs=0   SpecCamber=0
   Frame=3   DesignSect="Program Determined"   FrameType="Program Determined"   Fy=0   RLLF=0   AreaRatio=0   XLMajor=0   XLMinor=0   XKMajor=0   XKMinor=0   CmMajor=0   CmMinor=0   Cb=0   B1Major=0   B1Minor=0   B2Major=0   B2Minor=0 _
        PhiPnc=0   PhiPnt=0   PhiMn3=0   PhiMn2=0   PhiVn2=0   PhiVn3=0   CheckDefl="Program Determined"   DeflType="Program Determined"   DLRat=0   SDLAndLLRat=0   LLRat=0   TotalRat=0   NetRat=0   DLAbs=0   SDLAndLLAbs=0   LLAbs=0 _
        TotalAbs=0   NetAbs=0   SpecCamber=0
   Frame=4   DesignSect="Program Determined"   FrameType="Program Determined"   Fy=0   RLLF=0   AreaRatio=0   XLMajor=0   XLMinor=0   XKMajor=0   XKMinor=0   CmMajor=0   CmMinor=0   Cb=0   B1Major=0   B1Minor=0   B2Major=0   B2Minor=0 _
        PhiPnc=0   PhiPnt=0   PhiMn3=0   PhiMn2=0   PhiVn2=0   PhiVn3=0   CheckDefl="Program Determined"   DeflType="Program Determined"   DLRat=0   SDLAndLLRat=0   LLRat=0   TotalRat=0   NetRat=0   DLAbs=0   SDLAndLLAbs=0   LLAbs=0 _
        TotalAbs=0   NetAbs=0   SpecCamber=0
   Frame=5   DesignSect="Program Determined"   FrameType="Program Determined"   Fy=0   RLLF=0   AreaRatio=0   XLMajor=0   XLMinor=0   XKMajor=0   XKMinor=0   CmMajor=0   CmMinor=0   Cb=0   B1Major=0   B1Minor=0   B2Major=0   B2Minor=0 _
        PhiPnc=0   PhiPnt=0   PhiMn3=0   PhiMn2=0   PhiVn2=0   PhiVn3=0   CheckDefl="Program Determined"   DeflType="Program Determined"   DLRat=0   SDLAndLLRat=0   LLRat=0   TotalRat=0   NetRat=0   DLAbs=0   SDLAndLLAbs=0   LLAbs=0 _
        TotalAbs=0   NetAbs=0   SpecCamber=0
   Frame=6   DesignSect="Program Determined"   FrameType="Program Determined"   Fy=0   RLLF=0   AreaRatio=0   XLMajor=0   XLMinor=0   XKMajor=0   XKMinor=0   CmMajor=0   CmMinor=0   Cb=0   B1Major=0   B1Minor=0   B2Major=0   B2Minor=0 _
        PhiPnc=0   PhiPnt=0   PhiMn3=0   PhiMn2=0   PhiVn2=0   PhiVn3=0   CheckDefl="Program Determined"   DeflType="Program Determined"   DLRat=0   SDLAndLLRat=0   LLRat=0   TotalRat=0   NetRat=0   DLAbs=0   SDLAndLLAbs=0   LLAbs=0 _
        TotalAbs=0   NetAbs=0   SpecCamber=0
   Frame=7   DesignSect="Program Determined"   FrameType="Program Determined"   Fy=0   RLLF=0   AreaRatio=0   XLMajor=0   XLMinor=0   XKMajor=0   XKMinor=0   CmMajor=0   CmMinor=0   Cb=0   B1Major=0   B1Minor=0   B2Major=0   B2Minor=0 _
        PhiPnc=0   PhiPnt=0   PhiMn3=0   PhiMn2=0   PhiVn2=0   PhiVn3=0   CheckDefl="Program Determined"   DeflType="Program Determined"   DLRat=0   SDLAndLLRat=0   LLRat=0   TotalRat=0   NetRat=0   DLAbs=0   SDLAndLLAbs=0   LLAbs=0 _
        TotalAbs=0   NetAbs=0   SpecCamber=0
   Frame=8   DesignSect="Program Determined"   FrameType="Program Determined"   Fy=0   RLLF=0   AreaRatio=0   XLMajor=0   XLMinor=0   XKMajor=0   XKMinor=0   CmMajor=0   CmMinor=0   Cb=0   B1Major=0   B1Minor=0   B2Major=0   B2Minor=0 _
        PhiPnc=0   PhiPnt=0   PhiMn3=0   PhiMn2=0   PhiVn2=0   PhiVn3=0   CheckDefl="Program Determined"   DeflType="Program Determined"   DLRat=0   SDLAndLLRat=0   LLRat=0   TotalRat=0   NetRat=0   DLAbs=0   SDLAndLLAbs=0   LLAbs=0 _
        TotalAbs=0   NetAbs=0   SpecCamber=0
   Frame=9   DesignSect="Program Determined"   FrameType="Program Determined"   Fy=0   RLLF=0   AreaRatio=0   XLMajor=0   XLMinor=0   XKMajor=0   XKMinor=0   CmMajor=0   CmMinor=0   Cb=0   B1Major=0   B1Minor=0   B2Major=0   B2Minor=0 _
        PhiPnc=0   PhiPnt=0   PhiMn3=0   PhiMn2=0   PhiVn2=0   PhiVn3=0   CheckDefl="Program Determined"   DeflType="Program Determined"   DLRat=0   SDLAndLLRat=0   LLRat=0   TotalRat=0   NetRat=0   DLAbs=0   SDLAndLLAbs=0   LLAbs=0 _
        TotalAbs=0   NetAbs=0   SpecCamber=0
   Frame=10   DesignSect="Program Determined"   FrameType="Program Determined"   Fy=0   RLLF=0   AreaRatio=0   XLMajor=0   XLMinor=0   XKMajor=0   XKMinor=0   CmMajor=0   CmMinor=0   Cb=0   B1Major=0   B1Minor=0   B2Major=0   B2Minor=0 _
        PhiPnc=0   PhiPnt=0   PhiMn3=0   PhiMn2=0   PhiVn2=0   PhiVn3=0   CheckDefl="Program Determined"   DeflType="Program Determined"   DLRat=0   SDLAndLLRat=0   LLRat=0   TotalRat=0   NetRat=0   DLAbs=0   SDLAndLLAbs=0   LLAbs=0 _
        TotalAbs=0   NetAbs=0   SpecCamber=0
   Frame=11   DesignSect="Program Determined"   FrameType="Program Determined"   Fy=0   RLLF=0   AreaRatio=0   XLMajor=0   XLMinor=0   XKMajor=0   XKMinor=0   CmMajor=0   CmMinor=0   Cb=0   B1Major=0   B1Minor=0   B2Major=0   B2Minor=0 _
        PhiPnc=0   PhiPnt=0   PhiMn3=0   PhiMn2=0   PhiVn2=0   PhiVn3=0   CheckDefl="Program Determined"   DeflType="Program Determined"   DLRat=0   SDLAndLLRat=0   LLRat=0   TotalRat=0   NetRat=0   DLAbs=0   SDLAndLLAbs=0   LLAbs=0 _
        TotalAbs=0   NetAbs=0   SpecCamber=0
   Frame=12   DesignSect="Program Determined"   FrameType="Program Determined"   Fy=0   RLLF=0   AreaRatio=0   XLMajor=0   XLMinor=0   XKMajor=0   XKMinor=0   CmMajor=0   CmMinor=0   Cb=0   B1Major=0   B1Minor=0   B2Major=0   B2Minor=0 _
        PhiPnc=0   PhiPnt=0   PhiMn3=0   PhiMn2=0   PhiVn2=0   PhiVn3=0   CheckDefl="Program Determined"   DeflType="Program Determined"   DLRat=0   SDLAndLLRat=0   LLRat=0   TotalRat=0   NetRat=0   DLAbs=0   SDLAndLLAbs=0   LLAbs=0 _
        TotalAbs=0   NetAbs=0   SpecCamber=0
   Frame=13   DesignSect="Program Determined"   FrameType="Program Determined"   Fy=0   RLLF=0   AreaRatio=0   XLMajor=0   XLMinor=0   XKMajor=0   XKMinor=0   CmMajor=0   CmMinor=0   Cb=0   B1Major=0   B1Minor=0   B2Major=0   B2Minor=0 _
        PhiPnc=0   PhiPnt=0   PhiMn3=0   PhiMn2=0   PhiVn2=0   PhiVn3=0   CheckDefl="Program Determined"   DeflType="Program Determined"   DLRat=0   SDLAndLLRat=0   LLRat=0   TotalRat=0   NetRat=0   DLAbs=0   SDLAndLLAbs=0   LLAbs=0 _
        TotalAbs=0   NetAbs=0   SpecCamber=0
   Frame=14   DesignSect="Program Determined"   FrameType="Program Determined"   Fy=0   RLLF=0   AreaRatio=0   XLMajor=0   XLMinor=0   XKMajor=0   XKMinor=0   CmMajor=0   CmMinor=0   Cb=0   B1Major=0   B1Minor=0   B2Major=0   B2Minor=0 _
        PhiPnc=0   PhiPnt=0   PhiMn3=0   PhiMn2=0   PhiVn2=0   PhiVn3=0   CheckDefl="Program Determined"   DeflType="Program Determined"   DLRat=0   SDLAndLLRat=0   LLRat=0   TotalRat=0   NetRat=0   DLAbs=0   SDLAndLLAbs=0   LLAbs=0 _
        TotalAbs=0   NetAbs=0   SpecCamber=0
   Frame=15   DesignSect="Program Determined"   FrameType="Program Determined"   Fy=0   RLLF=0   AreaRatio=0   XLMajor=0   XLMinor=0   XKMajor=0   XKMinor=0   CmMajor=0   CmMinor=0   Cb=0   B1Major=0   B1Minor=0   B2Major=0   B2Minor=0 _
        PhiPnc=0   PhiPnt=0   PhiMn3=0   PhiMn2=0   PhiVn2=0   PhiVn3=0   CheckDefl="Program Determined"   DeflType="Program Determined"   DLRat=0   SDLAndLLRat=0   LLRat=0   TotalRat=0   NetRat=0   DLAbs=0   SDLAndLLAbs=0   LLAbs=0 _
        TotalAbs=0   NetAbs=0   SpecCamber=0
   Frame=16   DesignSect="Program Determined"   FrameType="Program Determined"   Fy=0   RLLF=0   AreaRatio=0   XLMajor=0   XLMinor=0   XKMajor=0   XKMinor=0   CmMajor=0   CmMinor=0   Cb=0   B1Major=0   B1Minor=0   B2Major=0   B2Minor=0 _
        PhiPnc=0   PhiPnt=0   PhiMn3=0   PhiMn2=0   PhiVn2=0   PhiVn3=0   CheckDefl="Program Determined"   DeflType="Program Determined"   DLRat=0   SDLAndLLRat=0   LLRat=0   TotalRat=0   NetRat=0   DLAbs=0   SDLAndLLAbs=0   LLAbs=0 _
        TotalAbs=0   NetAbs=0   SpecCamber=0
   Frame=17   DesignSect="Program Determined"   FrameType="Program Determined"   Fy=0   RLLF=0   AreaRatio=0   XLMajor=0   XLMinor=0   XKMajor=0   XKMinor=0   CmMajor=0   CmMinor=0   Cb=0   B1Major=0   B1Minor=0   B2Major=0   B2Minor=0 _
        PhiPnc=0   PhiPnt=0   PhiMn3=0   PhiMn2=0   PhiVn2=0   PhiVn3=0   CheckDefl="Program Determined"   DeflType="Program Determined"   DLRat=0   SDLAndLLRat=0   LLRat=0   TotalRat=0   NetRat=0   DLAbs=0   SDLAndLLAbs=0   LLAbs=0 _
        TotalAbs=0   NetAbs=0   SpecCamber=0
   Frame=18   DesignSect="Program Determined"   FrameType="Program Determined"   Fy=0   RLLF=0   AreaRatio=0   XLMajor=0   XLMinor=0   XKMajor=0   XKMinor=0   CmMajor=0   CmMinor=0   Cb=0   B1Major=0   B1Minor=0   B2Major=0   B2Minor=0 _
        PhiPnc=0   PhiPnt=0   PhiMn3=0   PhiMn2=0   PhiVn2=0   PhiVn3=0   CheckDefl="Program Determined"   DeflType="Program Determined"   DLRat=0   SDLAndLLRat=0   LLRat=0   TotalRat=0   NetRat=0   DLAbs=0   SDLAndLLAbs=0   LLAbs=0 _
        TotalAbs=0   NetAbs=0   SpecCamber=0
   Frame=19   DesignSect="Program Determined"   FrameType="Program Determined"   Fy=0   RLLF=0   AreaRatio=0   XLMajor=0   XLMinor=0   XKMajor=0   XKMinor=0   CmMajor=0   CmMinor=0   Cb=0   B1Major=0   B1Minor=0   B2Major=0   B2Minor=0 _
        PhiPnc=0   PhiPnt=0   PhiMn3=0   PhiMn2=0   PhiVn2=0   PhiVn3=0   CheckDefl="Program Determined"   DeflType="Program Determined"   DLRat=0   SDLAndLLRat=0   LLRat=0   TotalRat=0   NetRat=0   DLAbs=0   SDLAndLLAbs=0   LLAbs=0 _
        TotalAbs=0   NetAbs=0   SpecCamber=0
   Frame=20   DesignSect="Program Determined"   FrameType="Program Determined"   Fy=0   RLLF=0   AreaRatio=0   XLMajor=0   XLMinor=0   XKMajor=0   XKMinor=0   CmMajor=0   CmMinor=0   Cb=0   B1Major=0   B1Minor=0   B2Major=0   B2Minor=0 _
        PhiPnc=0   PhiPnt=0   PhiMn3=0   PhiMn2=0   PhiVn2=0   PhiVn3=0   CheckDefl="Program Determined"   DeflType="Program Determined"   DLRat=0   SDLAndLLRat=0   LLRat=0   TotalRat=0   NetRat=0   DLAbs=0   SDLAndLLAbs=0   LLAbs=0 _
        TotalAbs=0   NetAbs=0   SpecCamber=0
# ... 114 like lines cut
 
TABLE:  "PREFERENCES - ALUMINUM DESIGN - AA 2015"
   THDesign=Envelopes   SRatioLimit=1   Provision=ASD   LatFact=1.33333333333333   UseLatFact=No   Bridge=No   OmegaTy=1.65   OmegaTr=1.95   OmegaC=1.65   OmegaBo=1.65   OmegaBr=1.95   OmegaVo=1.65   OmegaVr=1.95
 
TABLE:  "PREFERENCES - COLD FORMED DESIGN - AISI-ASD96"
   THDesign=Envelopes   FrameType="Braced Frame"   SRatioLimit=1   MaxIter=1   OmegaBS=1.67   OmegaBUS=1.67   OmegaBLTB=1.67   OmegaVS=1.67   OmegaVNS=1.5   OmegaT=1.67   OmegaC=1.8
 
TABLE:  "PREFERENCES - CONCRETE DESIGN - ACI 318-08/IBC2009"
   THDesign=Envelopes   NumCurves=24   NumPoints=11   MinEccen=Yes   PatLLF=0.75   UFLimit=0.95   SeisCat=D   Rho=1   Sds=0.5   PhiT=0.9   PhiCTied=0.65   PhiCSpiral=0.7   PhiV=0.75   PhiVSeismic=0.6   PhiVJoint=0.85
 
TABLE:  "PREFERENCES - DIMENSIONAL"
   MergeTol=0.1   FineGrid=25   Nudge=25   SelectTol=3   SnapTol=12   SLineThick=1   PLineThick=4   MaxFont=8   MinFont=3   AutoZoom=10   ShrinkFact=70   TextFileLen=240
 
TABLE:  "PREFERENCES - STEEL DESIGN - AISC-LRFD93"
   THDesign=Envelopes   FrameType="Moment Frame"   PatLLF=0.75   SRatioLimit=0.95   MaxIter=1   PhiB=0.9   PhiC=0.85   PhiT=0.9   PhiV=0.9   PhiCA=0.9   CheckDefl=No   DLRat=120   SDLAndLLRat=120   LLRat=360   TotalRat=240   NetRat=240
 
TABLE:  "PROGRAM CONTROL"
   ProgramName=SAP2000   Version=23.3.1   CurrUnits="Kgf, cm, C"   SteelCode=AISC-LRFD93   ConcCode="ACI 318-08/IBC2009"   AlumCode="AA 2015"   ColdCode=AISI-ASD96   RegenHinge=Yes
 
TABLE:  "PROJECT INFORMATION"
   Item="Company Name"   Data=farad
   Item="Client Name"
   Item="Project Name"
   Item="Project Number"
   Item="Model Name"
   Item="Model Description"
   Item="Revision Number"
   Item="Frame Type"
   Item=Engineer
   Item=Checker
   Item=Supervisor
   Item="Issue Code"
   Item="Design Code"
 
TABLE:  "REBAR SIZES"
   RebarID=#2   Area=0.32258   Diameter=0.635
   RebarID=#3   Area=0.709675996154547   Diameter=0.9525
   RebarID=#4   Area=1.29032001922727   Diameter=1.27
   RebarID=#5   Area=1.99999601538181   Diameter=1.5875
   RebarID=#6   Area=2.83870398461819   Diameter=1.905
   RebarID=#7   Area=3.87096015381813   Diameter=2.2225
   RebarID=#8   Area=5.09676413843632   Diameter=2.54
   RebarID=#9   Area=6.4516   Diameter=2.86512005329132
   RebarID=#10   Area=8.1935318769455   Diameter=3.22579995155334
   RebarID=#11   Area=10.0644956308365   Diameter=3.58139991521835
   RebarID=#14   Area=14.5161   Diameter=4.30021989583969
   RebarID=#18   Area=25.8064   Diameter=5.73277992248535
   RebarID=10M   Area=1.00000004162606   Diameter=1.13000003604438
   RebarID=15M   Area=2.00000008325212   Diameter=1.60000002402959
   RebarID=20M   Area=3.00000012487818   Diameter=1.95000002928606
   RebarID=25M   Area=5.00000020813031   Diameter=2.52000011414055
   RebarID=30M   Area=7.00000029138243   Diameter=2.99000000675832
   RebarID=35M   Area=10.0000004162606   Diameter=3.57000012990997
   RebarID=45M   Area=15.0000006243909   Diameter=4.37000014192476
   RebarID=55M   Area=25.0000010406515   Diameter=5.6400002372922
   RebarID=6d   Area=0.283000004150781   Diameter=0.600000009011096
   RebarID=8d   Area=0.503000013308514   Diameter=0.800000012014795
   RebarID=10d   Area=0.785000032676458   Diameter=1.00000001501849
   RebarID=12d   Area=1.13000004703745   Diameter=1.20000001802219
   RebarID=14d   Area=1.54000006410413   Diameter=1.40000002102589
   RebarID=16d   Area=2.01000008366838   Diameter=1.60000002402959
   RebarID=20d   Area=3.14000013070583   Diameter=2.00000003003699
   RebarID=25d   Area=4.91000020438396   Diameter=2.50000003754623
   RebarID=26d   Area=5.31000022103439   Diameter=2.60000003904808
   RebarID=28d   Area=6.16000025641654   Diameter=2.80000004205178
   RebarID=N12   Area=1.13000004703745   Diameter=1.20000001802219
   RebarID=N16   Area=2.01000008366838   Diameter=1.60000002402959
   RebarID=N20   Area=3.14000013070583   Diameter=2.00000003003699
   RebarID=N24   Area=4.5200001881498   Diameter=2.40000003604438
   RebarID=N28   Area=6.16000025641654   Diameter=2.80000004205178
   RebarID=N32   Area=8.04000033467353   Diameter=3.20000004805918
   RebarID=N36   Area=10.2000004245858   Diameter=3.60000005406658
 
TABLE:  "SOLID PROPERTY DEFINITIONS"
   SolidProp=Solid1   Material=C25   MatAngleA=0   MatAngleB=0   MatAngleC=0   InComp=Yes   Color=Yellow
 
END TABLE DATA
